data_nwchem_pspw

_audit_creation_date   Thu Nov  2 12:21:36 2017
_audit_creation_method    generated by PSPW module of NWChem


_cell_length_a            12.5858
_cell_length_b            12.5858
_cell_length_c            12.5858
_cell_angle_alpha         90.0000
_cell_angle_beta          90.0000
_cell_angle_gamma         90.0000

_symmetry_space_group_name_H-M     P1  

loop_
_atom_site_type_symbol
_atom_site_fract_x
_atom_site_fract_y
_atom_site_fract_z
C             0.106941     -0.162397     -0.071605
C             0.160890     -0.090180      0.006459
C             0.078337     -0.046544      0.097156
O             0.083184     -0.081321      0.191786
O             0.022322      0.029200      0.063746
N             0.255997     -0.137368      0.057691
H             0.042448     -0.117505     -0.110617
H             0.082866     -0.237243     -0.031107
H             0.159539     -0.184246     -0.137552
H             0.194182     -0.020976     -0.032124
H             0.241934     -0.185677      0.121310
H             0.320037     -0.089918      0.076776
H             0.291831     -0.180671     -0.005570
O             0.205146     -0.489351      0.141571
H             0.187507     -0.413393      0.126157
H             0.221037     -0.497614      0.218960
O             0.031411      0.239166     -0.226064
H             0.087474      0.191255     -0.255700
H             0.018572      0.299233     -0.276438
O             0.021662      0.431922     -0.363679
H             0.008743     -0.493788     -0.388707
H             0.019414      0.382342     -0.425733
O             0.462260     -0.496502     -0.365665
H             0.492533     -0.423960     -0.353985
H             0.388447     -0.499442     -0.336347
O             0.087474      0.270312      0.472975
H             0.068962      0.235829      0.403850
H             0.145714      0.323149      0.461375
O             0.299220     -0.256709     -0.121105
H             0.292228     -0.235097     -0.197222
H             0.362625     -0.303825     -0.112683
O            -0.216280      0.395929      0.024432
H            -0.244645      0.356520      0.087312
H            -0.267766      0.390208     -0.035827
O            -0.471884     -0.232078     -0.273975
H             0.494904     -0.179718     -0.224316
H            -0.450988     -0.297231     -0.233612
O             0.230413      0.371616     -0.056779
H             0.228267      0.404987      0.015307
H             0.235975      0.292718     -0.049286
O             0.302398      0.316554      0.424031
H             0.271649      0.381230      0.458514
H             0.268233      0.305669      0.353079
O            -0.129754     -0.399806      0.130130
H            -0.093014     -0.450260      0.179391
H            -0.167097     -0.440804      0.073256
O            -0.177506      0.240914     -0.138426
H            -0.105449      0.219143     -0.163772
H            -0.224225      0.255930     -0.200877
O            -0.181479      0.129678      0.083840
H            -0.178459      0.179257      0.021777
H            -0.112194      0.091381      0.090514
O             0.177973      0.122686     -0.330944
H             0.178052      0.167816     -0.396335
H             0.252660      0.112515     -0.305677
O            -0.329025      0.265544      0.180027
H            -0.376062      0.246873      0.118768
H            -0.264985      0.218508      0.179471
O             0.457970     -0.184326     -0.490237
H             0.474576     -0.197833     -0.413723
H             0.422931     -0.113373     -0.497627
O            -0.359695      0.419765     -0.173704
H            -0.413485      0.423182     -0.232103
H            -0.306460      0.477926     -0.183238
O             0.380979      0.062459     -0.239095
H             0.380820      0.023892     -0.169572
H             0.452408      0.055459     -0.273101
O            -0.300581      0.429379     -0.447583
H            -0.378207      0.442887     -0.457991
H            -0.276744      0.463068     -0.379649
O             0.090255     -0.035174     -0.488251
H             0.084773      0.024655      0.459706
H             0.160890     -0.032409     -0.452099
O             0.057838     -0.359602     -0.223045
H             0.001926     -0.377638     -0.276518
H             0.050361     -0.407116     -0.159799
O             0.080085     -0.284597      0.110584
H             0.079449     -0.222305      0.159846
H             0.009935     -0.321782      0.114001
O            -0.202057      0.395850      0.354509
H            -0.248300      0.345952      0.313510
H            -0.236938      0.413488      0.423713
O            -0.007601      0.443999      0.262024
H             0.004850      0.416826      0.188370
H            -0.061852      0.398551      0.298176
O            -0.061733     -0.350068     -0.411431
H            -0.117518     -0.369613     -0.464586
H            -0.075224     -0.276493     -0.384734
O            -0.357708     -0.226993      0.306121
H            -0.426357     -0.226913      0.346246
H            -0.361919     -0.174633      0.246530
O             0.272206     -0.204587      0.284589
H             0.313045     -0.262271      0.320979
H             0.198869     -0.200932      0.314782
O             0.394724     -0.402508      0.340922
H             0.351263     -0.407434      0.407187
H             0.435643     -0.469964      0.330990
O            -0.114419     -0.048864     -0.110776
H            -0.072054     -0.033466     -0.045329
H            -0.080548     -0.013274     -0.173227
O            -0.116644      0.159791     -0.476107
H            -0.049727      0.192208      0.495925
H            -0.136348      0.097022      0.479240
O            -0.351352     -0.009469      0.156747
H            -0.321239     -0.072494      0.118927
H            -0.314008      0.056333      0.132513
O             0.439378      0.213820     -0.408650
H             0.398935      0.247349     -0.468241
H             0.413793      0.243138     -0.339366
O            -0.027099      0.098373      0.300480
H            -0.012002      0.021167      0.289118
H            -0.028578      0.135637      0.230322
O             0.217779      0.150812     -0.086701
H             0.229539      0.112198     -0.155191
H             0.140550      0.148826     -0.068188
O             0.258063      0.052535      0.318119
H             0.251945      0.129836      0.300957
H             0.201491      0.012308      0.279504
O             0.402987     -0.011985      0.154363
H             0.480614     -0.023717      0.166599
H             0.366677     -0.000381      0.224124
O            -0.287550     -0.151909     -0.464189
H            -0.341658     -0.209433     -0.472770
H            -0.291920     -0.102011      0.474155
O            -0.415710      0.007644     -0.317039
H            -0.378764     -0.054148     -0.350648
H            -0.383213      0.075331     -0.343100
O            -0.196813     -0.194337     -0.236473
H            -0.143897     -0.138163     -0.217483
H            -0.222874     -0.182181     -0.310524
O            -0.316551      0.214932     -0.350807
H            -0.257516      0.231856     -0.401261
H            -0.377016      0.264988     -0.363202
O            -0.040550      0.003282     -0.305757
H            -0.088016      0.061990     -0.330467
H             0.015497     -0.010311     -0.360342
O             0.051196      0.306384      0.069260
H             0.042893      0.229631      0.050493
H             0.066975      0.348177      0.003535
O             0.409741      0.294625     -0.194044
H             0.380820      0.368517     -0.191660
H             0.364929      0.247111     -0.148755
O            -0.241069      0.019689      0.366189
H            -0.162409      0.030670      0.366904
H            -0.261807     -0.018949      0.299924
O             0.254249     -0.251862     -0.334042
H             0.295565     -0.257503     -0.401658
H             0.180595     -0.279274     -0.345643
O            -0.224622     -0.161523      0.071794
H            -0.177983     -0.210625      0.113365
H            -0.195145     -0.152624     -0.001439
O             0.461943      0.486507      0.098507
H            -0.486968      0.480707      0.159051
H             0.426903      0.416110      0.086636
O            -0.342374      0.024178     -0.097427
H            -0.388854      0.025259     -0.161865
H            -0.273169     -0.010532     -0.115225
O             0.086680     -0.241136      0.398606
H             0.007980     -0.247889      0.389786
H             0.103763     -0.170263      0.430229
O             0.456778     -0.090188     -0.042477
H             0.483793     -0.164145     -0.031886
H            -0.482280     -0.039203     -0.040546
O            -0.203170     -0.445492     -0.263725
H            -0.153193     -0.491179     -0.222250
H            -0.188868     -0.369057     -0.247358
O            -0.281988     -0.337832     -0.067553
H            -0.271500     -0.301124      0.002137
H            -0.277062     -0.284677     -0.126428
O            -0.419683      0.230505     -0.035239
H            -0.433428      0.285408     -0.090992
H            -0.368593      0.176476     -0.063326
O             0.255679      0.493963     -0.261660
H             0.243046      0.464565     -0.188959
H             0.210946     -0.441202     -0.272148
O            -0.050061      0.442330     -0.124998
H            -0.029836      0.388222     -0.179583
H            -0.096002      0.408324     -0.069777
O             0.308357     -0.020865     -0.463791
H             0.302239     -0.001295      0.459456
H             0.345065      0.037566     -0.424382
O            -0.470136      0.175125      0.383112
H            -0.399024      0.140086      0.378027
H            -0.489126      0.185455      0.459547
O             0.406007      0.215806      0.109789
H             0.404974      0.157884      0.164136
H             0.470841      0.208496      0.064421
O             0.199426      0.256963      0.227859
H             0.135942      0.276668      0.184318
H             0.264896      0.262605      0.183205
O            -0.142625     -0.289126      0.366427
H            -0.220332     -0.282849      0.351013
H            -0.113783     -0.354199      0.331149
O             0.167247     -0.491258      0.401387
H             0.095897      0.487687      0.373498
H             0.172014     -0.412042      0.404883
O            -0.488172      0.394181      0.321853
H            -0.417776      0.357632      0.317483
H             0.456528      0.342377      0.345610
O             0.498162     -0.401951     -0.115464
H             0.460421     -0.443903     -0.059512
H            -0.427151     -0.387888     -0.092183
O             0.488150     -0.284279      0.074321
H            -0.461793     -0.278003      0.135692
H             0.453111     -0.355629      0.075910
data_nwchem_pspw

_audit_creation_date   Thu Nov  2 12:22:36 2017
_audit_creation_method    generated by PSPW module of NWChem


_cell_length_a            12.5858
_cell_length_b            12.5858
_cell_length_c            12.5858
_cell_angle_alpha         90.0000
_cell_angle_beta          90.0000
_cell_angle_gamma         90.0000

_symmetry_space_group_name_H-M     P1  

loop_
_atom_site_type_symbol
_atom_site_fract_x
_atom_site_fract_y
_atom_site_fract_z
C             0.106941     -0.162397     -0.071605
C             0.160890     -0.090180      0.006459
C             0.078337     -0.046544      0.097156
O             0.083184     -0.081321      0.191786
O             0.022322      0.029200      0.063746
N             0.255997     -0.137368      0.057691
H             0.042448     -0.117505     -0.110617
H             0.082866     -0.237243     -0.031107
H             0.159539     -0.184246     -0.137552
H             0.194182     -0.020976     -0.032124
H             0.241934     -0.185677      0.121310
H             0.320037     -0.089918      0.076776
H             0.291831     -0.180671     -0.005570
O             0.205146     -0.489351      0.141571
H             0.187507     -0.413393      0.126157
H             0.221037     -0.497614      0.218960
O             0.031411      0.239166     -0.226064
H             0.087474      0.191255     -0.255700
H             0.018572      0.299233     -0.276438
O             0.021662      0.431922     -0.363679
H             0.008743     -0.493788     -0.388707
H             0.019414      0.382342     -0.425733
O             0.462260     -0.496502     -0.365665
H             0.492533     -0.423960     -0.353985
H             0.388447     -0.499442     -0.336347
O             0.087474      0.270312      0.472975
H             0.068962      0.235829      0.403850
H             0.145714      0.323149      0.461375
O             0.299220     -0.256709     -0.121105
H             0.292228     -0.235097     -0.197222
H             0.362625     -0.303825     -0.112683
O            -0.216280      0.395929      0.024432
H            -0.244645      0.356520      0.087312
H            -0.267766      0.390208     -0.035827
O            -0.471884     -0.232078     -0.273975
H             0.494904     -0.179718     -0.224316
H            -0.450988     -0.297231     -0.233612
O             0.230413      0.371616     -0.056779
H             0.228267      0.404987      0.015307
H             0.235975      0.292718     -0.049286
O             0.302398      0.316554      0.424031
H             0.271649      0.381230      0.458514
H             0.268233      0.305669      0.353079
O            -0.129754     -0.399806      0.130130
H            -0.093014     -0.450260      0.179391
H            -0.167097     -0.440804      0.073256
O            -0.177506      0.240914     -0.138426
H            -0.105449      0.219143     -0.163772
H            -0.224225      0.255930     -0.200877
O            -0.181479      0.129678      0.083840
H            -0.178459      0.179257      0.021777
H            -0.112194      0.091381      0.090514
O             0.177973      0.122686     -0.330944
H             0.178052      0.167816     -0.396335
H             0.252660      0.112515     -0.305677
O            -0.329025      0.265544      0.180027
H            -0.376062      0.246873      0.118768
H            -0.264985      0.218508      0.179471
O             0.457970     -0.184326     -0.490237
H             0.474576     -0.197833     -0.413723
H             0.422931     -0.113373     -0.497627
O            -0.359695      0.419765     -0.173704
H            -0.413485      0.423182     -0.232103
H            -0.306460      0.477926     -0.183238
O             0.380979      0.062459     -0.239095
H             0.380820      0.023892     -0.169572
H             0.452408      0.055459     -0.273101
O            -0.300581      0.429379     -0.447583
H            -0.378207      0.442887     -0.457991
H            -0.276744      0.463068     -0.379649
O             0.090255     -0.035174     -0.488251
H             0.084773      0.024655      0.459706
H             0.160890     -0.032409     -0.452099
O             0.057838     -0.359602     -0.223045
H             0.001926     -0.377638     -0.276518
H             0.050361     -0.407116     -0.159799
O             0.080085     -0.284597      0.110584
H             0.079449     -0.222305      0.159846
H             0.009935     -0.321782      0.114001
O            -0.202057      0.395850      0.354509
H            -0.248300      0.345952      0.313510
H            -0.236938      0.413488      0.423713
O            -0.007601      0.443999      0.262024
H             0.004850      0.416826      0.188370
H            -0.061852      0.398551      0.298176
O            -0.061733     -0.350068     -0.411431
H            -0.117518     -0.369613     -0.464586
H            -0.075224     -0.276493     -0.384734
O            -0.357708     -0.226993      0.306121
H            -0.426357     -0.226913      0.346246
H            -0.361919     -0.174633      0.246530
O             0.272206     -0.204587      0.284589
H             0.313045     -0.262271      0.320979
H             0.198869     -0.200932      0.314782
O             0.394724     -0.402508      0.340922
H             0.351263     -0.407434      0.407187
H             0.435643     -0.469964      0.330990
O            -0.114419     -0.048864     -0.110776
H            -0.072054     -0.033466     -0.045329
H            -0.080548     -0.013274     -0.173227
O            -0.116644      0.159791     -0.476107
H            -0.049727      0.192208      0.495925
H            -0.136348      0.097022      0.479240
O            -0.351352     -0.009469      0.156747
H            -0.321239     -0.072494      0.118927
H            -0.314008      0.056333      0.132513
O             0.439378      0.213820     -0.408650
H             0.398935      0.247349     -0.468241
H             0.413793      0.243138     -0.339366
O            -0.027099      0.098373      0.300480
H            -0.012002      0.021167      0.289118
H            -0.028578      0.135637      0.230322
O             0.217779      0.150812     -0.086701
H             0.229539      0.112198     -0.155191
H             0.140550      0.148826     -0.068188
O             0.258063      0.052535      0.318119
H             0.251945      0.129836      0.300957
H             0.201491      0.012308      0.279504
O             0.402987     -0.011985      0.154363
H             0.480614     -0.023717      0.166599
H             0.366677     -0.000381      0.224124
O            -0.287550     -0.151909     -0.464189
H            -0.341658     -0.209433     -0.472770
H            -0.291920     -0.102011      0.474155
O            -0.415710      0.007644     -0.317039
H            -0.378764     -0.054148     -0.350648
H            -0.383213      0.075331     -0.343100
O            -0.196813     -0.194337     -0.236473
H            -0.143897     -0.138163     -0.217483
H            -0.222874     -0.182181     -0.310524
O            -0.316551      0.214932     -0.350807
H            -0.257516      0.231856     -0.401261
H            -0.377016      0.264988     -0.363202
O            -0.040550      0.003282     -0.305757
H            -0.088016      0.061990     -0.330467
H             0.015497     -0.010311     -0.360342
O             0.051196      0.306384      0.069260
H             0.042893      0.229631      0.050493
H             0.066975      0.348177      0.003535
O             0.409741      0.294625     -0.194044
H             0.380820      0.368517     -0.191660
H             0.364929      0.247111     -0.148755
O            -0.241069      0.019689      0.366189
H            -0.162409      0.030670      0.366904
H            -0.261807     -0.018949      0.299924
O             0.254249     -0.251862     -0.334042
H             0.295565     -0.257503     -0.401658
H             0.180595     -0.279274     -0.345643
O            -0.224622     -0.161523      0.071794
H            -0.177983     -0.210625      0.113365
H            -0.195145     -0.152624     -0.001439
O             0.461943      0.486507      0.098507
H            -0.486968      0.480707      0.159051
H             0.426903      0.416110      0.086636
O            -0.342374      0.024178     -0.097427
H            -0.388854      0.025259     -0.161865
H            -0.273169     -0.010532     -0.115225
O             0.086680     -0.241136      0.398606
H             0.007980     -0.247889      0.389786
H             0.103763     -0.170263      0.430229
O             0.456778     -0.090188     -0.042477
H             0.483793     -0.164145     -0.031886
H            -0.482280     -0.039203     -0.040546
O            -0.203170     -0.445492     -0.263725
H            -0.153193     -0.491179     -0.222250
H            -0.188868     -0.369057     -0.247358
O            -0.281988     -0.337832     -0.067553
H            -0.271500     -0.301124      0.002137
H            -0.277062     -0.284677     -0.126428
O            -0.419683      0.230505     -0.035239
H            -0.433428      0.285408     -0.090992
H            -0.368593      0.176476     -0.063326
O             0.255679      0.493963     -0.261660
H             0.243046      0.464565     -0.188959
H             0.210946     -0.441202     -0.272148
O            -0.050061      0.442330     -0.124998
H            -0.029836      0.388222     -0.179583
H            -0.096002      0.408324     -0.069777
O             0.308357     -0.020865     -0.463791
H             0.302239     -0.001295      0.459456
H             0.345065      0.037566     -0.424382
O            -0.470136      0.175125      0.383112
H            -0.399024      0.140086      0.378027
H            -0.489126      0.185455      0.459547
O             0.406007      0.215806      0.109789
H             0.404974      0.157884      0.164136
H             0.470841      0.208496      0.064421
O             0.199426      0.256963      0.227859
H             0.135942      0.276668      0.184318
H             0.264896      0.262605      0.183205
O            -0.142625     -0.289126      0.366427
H            -0.220332     -0.282849      0.351013
H            -0.113783     -0.354199      0.331149
O             0.167247     -0.491258      0.401387
H             0.095897      0.487687      0.373498
H             0.172014     -0.412042      0.404883
O            -0.488172      0.394181      0.321853
H            -0.417776      0.357632      0.317483
H             0.456528      0.342377      0.345610
O             0.498162     -0.401951     -0.115464
H             0.460421     -0.443903     -0.059512
H            -0.427151     -0.387888     -0.092183
O             0.488150     -0.284279      0.074321
H            -0.461793     -0.278003      0.135692
H             0.453111     -0.355629      0.075910
data_nwchem_pspw

_audit_creation_date   Thu Nov  2 12:23:46 2017
_audit_creation_method    generated by PSPW module of NWChem


_cell_length_a            12.5858
_cell_length_b            12.5858
_cell_length_c            12.5858
_cell_angle_alpha         90.0000
_cell_angle_beta          90.0000
_cell_angle_gamma         90.0000

_symmetry_space_group_name_H-M     P1  

loop_
_atom_site_type_symbol
_atom_site_fract_x
_atom_site_fract_y
_atom_site_fract_z
C             0.106941     -0.162397     -0.071605
C             0.160890     -0.090180      0.006459
C             0.078337     -0.046544      0.097156
O             0.083184     -0.081321      0.191786
O             0.022322      0.029200      0.063746
N             0.255997     -0.137368      0.057691
H             0.042448     -0.117505     -0.110617
H             0.082866     -0.237243     -0.031107
H             0.159539     -0.184246     -0.137552
H             0.194182     -0.020976     -0.032124
H             0.241934     -0.185677      0.121310
H             0.320037     -0.089918      0.076776
H             0.291831     -0.180671     -0.005570
O             0.205146     -0.489351      0.141571
H             0.187507     -0.413393      0.126157
H             0.221037     -0.497614      0.218960
O             0.031411      0.239166     -0.226064
H             0.087474      0.191255     -0.255700
H             0.018572      0.299233     -0.276438
O             0.021662      0.431922     -0.363679
H             0.008743     -0.493788     -0.388707
H             0.019414      0.382342     -0.425733
O             0.462260     -0.496502     -0.365665
H             0.492533     -0.423960     -0.353985
H             0.388447     -0.499442     -0.336347
O             0.087474      0.270312      0.472975
H             0.068962      0.235829      0.403850
H             0.145714      0.323149      0.461375
O             0.299220     -0.256709     -0.121105
H             0.292228     -0.235097     -0.197222
H             0.362625     -0.303825     -0.112683
O            -0.216280      0.395929      0.024432
H            -0.244645      0.356520      0.087312
H            -0.267766      0.390208     -0.035827
O            -0.471884     -0.232078     -0.273975
H             0.494904     -0.179718     -0.224316
H            -0.450988     -0.297231     -0.233612
O             0.230413      0.371616     -0.056779
H             0.228267      0.404987      0.015307
H             0.235975      0.292718     -0.049286
O             0.302398      0.316554      0.424031
H             0.271649      0.381230      0.458514
H             0.268233      0.305669      0.353079
O            -0.129754     -0.399806      0.130130
H            -0.093014     -0.450260      0.179391
H            -0.167097     -0.440804      0.073256
O            -0.177506      0.240914     -0.138426
H            -0.105449      0.219143     -0.163772
H            -0.224225      0.255930     -0.200877
O            -0.181479      0.129678      0.083840
H            -0.178459      0.179257      0.021777
H            -0.112194      0.091381      0.090514
O             0.177973      0.122686     -0.330944
H             0.178052      0.167816     -0.396335
H             0.252660      0.112515     -0.305677
O            -0.329025      0.265544      0.180027
H            -0.376062      0.246873      0.118768
H            -0.264985      0.218508      0.179471
O             0.457970     -0.184326     -0.490237
H             0.474576     -0.197833     -0.413723
H             0.422931     -0.113373     -0.497627
O            -0.359695      0.419765     -0.173704
H            -0.413485      0.423182     -0.232103
H            -0.306460      0.477926     -0.183238
O             0.380979      0.062459     -0.239095
H             0.380820      0.023892     -0.169572
H             0.452408      0.055459     -0.273101
O            -0.300581      0.429379     -0.447583
H            -0.378207      0.442887     -0.457991
H            -0.276744      0.463068     -0.379649
O             0.090255     -0.035174     -0.488251
H             0.084773      0.024655      0.459706
H             0.160890     -0.032409     -0.452099
O             0.057838     -0.359602     -0.223045
H             0.001926     -0.377638     -0.276518
H             0.050361     -0.407116     -0.159799
O             0.080085     -0.284597      0.110584
H             0.079449     -0.222305      0.159846
H             0.009935     -0.321782      0.114001
O            -0.202057      0.395850      0.354509
H            -0.248300      0.345952      0.313510
H            -0.236938      0.413488      0.423713
O            -0.007601      0.443999      0.262024
H             0.004850      0.416826      0.188370
H            -0.061852      0.398551      0.298176
O            -0.061733     -0.350068     -0.411431
H            -0.117518     -0.369613     -0.464586
H            -0.075224     -0.276493     -0.384734
O            -0.357708     -0.226993      0.306121
H            -0.426357     -0.226913      0.346246
H            -0.361919     -0.174633      0.246530
O             0.272206     -0.204587      0.284589
H             0.313045     -0.262271      0.320979
H             0.198869     -0.200932      0.314782
O             0.394724     -0.402508      0.340922
H             0.351263     -0.407434      0.407187
H             0.435643     -0.469964      0.330990
O            -0.114419     -0.048864     -0.110776
H            -0.072054     -0.033466     -0.045329
H            -0.080548     -0.013274     -0.173227
O            -0.116644      0.159791     -0.476107
H            -0.049727      0.192208      0.495925
H            -0.136348      0.097022      0.479240
O            -0.351352     -0.009469      0.156747
H            -0.321239     -0.072494      0.118927
H            -0.314008      0.056333      0.132513
O             0.439378      0.213820     -0.408650
H             0.398935      0.247349     -0.468241
H             0.413793      0.243138     -0.339366
O            -0.027099      0.098373      0.300480
H            -0.012002      0.021167      0.289118
H            -0.028578      0.135637      0.230322
O             0.217779      0.150812     -0.086701
H             0.229539      0.112198     -0.155191
H             0.140550      0.148826     -0.068188
O             0.258063      0.052535      0.318119
H             0.251945      0.129836      0.300957
H             0.201491      0.012308      0.279504
O             0.402987     -0.011985      0.154363
H             0.480614     -0.023717      0.166599
H             0.366677     -0.000381      0.224124
O            -0.287550     -0.151909     -0.464189
H            -0.341658     -0.209433     -0.472770
H            -0.291920     -0.102011      0.474155
O            -0.415710      0.007644     -0.317039
H            -0.378764     -0.054148     -0.350648
H            -0.383213      0.075331     -0.343100
O            -0.196813     -0.194337     -0.236473
H            -0.143897     -0.138163     -0.217483
H            -0.222874     -0.182181     -0.310524
O            -0.316551      0.214932     -0.350807
H            -0.257516      0.231856     -0.401261
H            -0.377016      0.264988     -0.363202
O            -0.040550      0.003282     -0.305757
H            -0.088016      0.061990     -0.330467
H             0.015497     -0.010311     -0.360342
O             0.051196      0.306384      0.069260
H             0.042893      0.229631      0.050493
H             0.066975      0.348177      0.003535
O             0.409741      0.294625     -0.194044
H             0.380820      0.368517     -0.191660
H             0.364929      0.247111     -0.148755
O            -0.241069      0.019689      0.366189
H            -0.162409      0.030670      0.366904
H            -0.261807     -0.018949      0.299924
O             0.254249     -0.251862     -0.334042
H             0.295565     -0.257503     -0.401658
H             0.180595     -0.279274     -0.345643
O            -0.224622     -0.161523      0.071794
H            -0.177983     -0.210625      0.113365
H            -0.195145     -0.152624     -0.001439
O             0.461943      0.486507      0.098507
H            -0.486968      0.480707      0.159051
H             0.426903      0.416110      0.086636
O            -0.342374      0.024178     -0.097427
H            -0.388854      0.025259     -0.161865
H            -0.273169     -0.010532     -0.115225
O             0.086680     -0.241136      0.398606
H             0.007980     -0.247889      0.389786
H             0.103763     -0.170263      0.430229
O             0.456778     -0.090188     -0.042477
H             0.483793     -0.164145     -0.031886
H            -0.482280     -0.039203     -0.040546
O            -0.203170     -0.445492     -0.263725
H            -0.153193     -0.491179     -0.222250
H            -0.188868     -0.369057     -0.247358
O            -0.281988     -0.337832     -0.067553
H            -0.271500     -0.301124      0.002137
H            -0.277062     -0.284677     -0.126428
O            -0.419683      0.230505     -0.035239
H            -0.433428      0.285408     -0.090992
H            -0.368593      0.176476     -0.063326
O             0.255679      0.493963     -0.261660
H             0.243046      0.464565     -0.188959
H             0.210946     -0.441202     -0.272148
O            -0.050061      0.442330     -0.124998
H            -0.029836      0.388222     -0.179583
H            -0.096002      0.408324     -0.069777
O             0.308357     -0.020865     -0.463791
H             0.302239     -0.001295      0.459456
H             0.345065      0.037566     -0.424382
O            -0.470136      0.175125      0.383112
H            -0.399024      0.140086      0.378027
H            -0.489126      0.185455      0.459547
O             0.406007      0.215806      0.109789
H             0.404974      0.157884      0.164136
H             0.470841      0.208496      0.064421
O             0.199426      0.256963      0.227859
H             0.135942      0.276668      0.184318
H             0.264896      0.262605      0.183205
O            -0.142625     -0.289126      0.366427
H            -0.220332     -0.282849      0.351013
H            -0.113783     -0.354199      0.331149
O             0.167247     -0.491258      0.401387
H             0.095897      0.487687      0.373498
H             0.172014     -0.412042      0.404883
O            -0.488172      0.394181      0.321853
H            -0.417776      0.357632      0.317483
H             0.456528      0.342377      0.345610
O             0.498162     -0.401951     -0.115464
H             0.460421     -0.443903     -0.059512
H            -0.427151     -0.387888     -0.092183
O             0.488150     -0.284279      0.074321
H            -0.461793     -0.278003      0.135692
H             0.453111     -0.355629      0.075910
data_nwchem_pspw

_audit_creation_date   Thu Nov  2 12:25:17 2017
_audit_creation_method    generated by PSPW module of NWChem


_cell_length_a            12.5858
_cell_length_b            12.5858
_cell_length_c            12.5858
_cell_angle_alpha         90.0000
_cell_angle_beta          90.0000
_cell_angle_gamma         90.0000

_symmetry_space_group_name_H-M     P1  

loop_
_atom_site_type_symbol
_atom_site_fract_x
_atom_site_fract_y
_atom_site_fract_z
C             0.106941     -0.162397     -0.071605
C             0.160890     -0.090180      0.006459
C             0.078337     -0.046544      0.097156
O             0.083184     -0.081321      0.191786
O             0.022322      0.029200      0.063746
N             0.255997     -0.137368      0.057691
H             0.042448     -0.117505     -0.110617
H             0.082866     -0.237243     -0.031107
H             0.159539     -0.184246     -0.137552
H             0.194182     -0.020976     -0.032124
H             0.241934     -0.185677      0.121310
H             0.320037     -0.089918      0.076776
H             0.291831     -0.180671     -0.005570
O             0.205146     -0.489351      0.141571
H             0.187507     -0.413393      0.126157
H             0.221037     -0.497614      0.218960
O             0.031411      0.239166     -0.226064
H             0.087474      0.191255     -0.255700
H             0.018572      0.299233     -0.276438
O             0.021662      0.431922     -0.363679
H             0.008743     -0.493788     -0.388707
H             0.019414      0.382342     -0.425733
O             0.462260     -0.496502     -0.365665
H             0.492533     -0.423960     -0.353985
H             0.388447     -0.499442     -0.336347
O             0.087474      0.270312      0.472975
H             0.068962      0.235829      0.403850
H             0.145714      0.323149      0.461375
O             0.299220     -0.256709     -0.121105
H             0.292228     -0.235097     -0.197222
H             0.362625     -0.303825     -0.112683
O            -0.216280      0.395929      0.024432
H            -0.244645      0.356520      0.087312
H            -0.267766      0.390208     -0.035827
O            -0.471884     -0.232078     -0.273975
H             0.494904     -0.179718     -0.224316
H            -0.450988     -0.297231     -0.233612
O             0.230413      0.371616     -0.056779
H             0.228267      0.404987      0.015307
H             0.235975      0.292718     -0.049286
O             0.302398      0.316554      0.424031
H             0.271649      0.381230      0.458514
H             0.268233      0.305669      0.353079
O            -0.129754     -0.399806      0.130130
H            -0.093014     -0.450260      0.179391
H            -0.167097     -0.440804      0.073256
O            -0.177506      0.240914     -0.138426
H            -0.105449      0.219143     -0.163772
H            -0.224225      0.255930     -0.200877
O            -0.181479      0.129678      0.083840
H            -0.178459      0.179257      0.021777
H            -0.112194      0.091381      0.090514
O             0.177973      0.122686     -0.330944
H             0.178052      0.167816     -0.396335
H             0.252660      0.112515     -0.305677
O            -0.329025      0.265544      0.180027
H            -0.376062      0.246873      0.118768
H            -0.264985      0.218508      0.179471
O             0.457970     -0.184326     -0.490237
H             0.474576     -0.197833     -0.413723
H             0.422931     -0.113373     -0.497627
O            -0.359695      0.419765     -0.173704
H            -0.413485      0.423182     -0.232103
H            -0.306460      0.477926     -0.183238
O             0.380979      0.062459     -0.239095
H             0.380820      0.023892     -0.169572
H             0.452408      0.055459     -0.273101
O            -0.300581      0.429379     -0.447583
H            -0.378207      0.442887     -0.457991
H            -0.276744      0.463068     -0.379649
O             0.090255     -0.035174     -0.488251
H             0.084773      0.024655      0.459706
H             0.160890     -0.032409     -0.452099
O             0.057838     -0.359602     -0.223045
H             0.001926     -0.377638     -0.276518
H             0.050361     -0.407116     -0.159799
O             0.080085     -0.284597      0.110584
H             0.079449     -0.222305      0.159846
H             0.009935     -0.321782      0.114001
O            -0.202057      0.395850      0.354509
H            -0.248300      0.345952      0.313510
H            -0.236938      0.413488      0.423713
O            -0.007601      0.443999      0.262024
H             0.004850      0.416826      0.188370
H            -0.061852      0.398551      0.298176
O            -0.061733     -0.350068     -0.411431
H            -0.117518     -0.369613     -0.464586
H            -0.075224     -0.276493     -0.384734
O            -0.357708     -0.226993      0.306121
H            -0.426357     -0.226913      0.346246
H            -0.361919     -0.174633      0.246530
O             0.272206     -0.204587      0.284589
H             0.313045     -0.262271      0.320979
H             0.198869     -0.200932      0.314782
O             0.394724     -0.402508      0.340922
H             0.351263     -0.407434      0.407187
H             0.435643     -0.469964      0.330990
O            -0.114419     -0.048864     -0.110776
H            -0.072054     -0.033466     -0.045329
H            -0.080548     -0.013274     -0.173227
O            -0.116644      0.159791     -0.476107
H            -0.049727      0.192208      0.495925
H            -0.136348      0.097022      0.479240
O            -0.351352     -0.009469      0.156747
H            -0.321239     -0.072494      0.118927
H            -0.314008      0.056333      0.132513
O             0.439378      0.213820     -0.408650
H             0.398935      0.247349     -0.468241
H             0.413793      0.243138     -0.339366
O            -0.027099      0.098373      0.300480
H            -0.012002      0.021167      0.289118
H            -0.028578      0.135637      0.230322
O             0.217779      0.150812     -0.086701
H             0.229539      0.112198     -0.155191
H             0.140550      0.148826     -0.068188
O             0.258063      0.052535      0.318119
H             0.251945      0.129836      0.300957
H             0.201491      0.012308      0.279504
O             0.402987     -0.011985      0.154363
H             0.480614     -0.023717      0.166599
H             0.366677     -0.000381      0.224124
O            -0.287550     -0.151909     -0.464189
H            -0.341658     -0.209433     -0.472770
H            -0.291920     -0.102011      0.474155
O            -0.415710      0.007644     -0.317039
H            -0.378764     -0.054148     -0.350648
H            -0.383213      0.075331     -0.343100
O            -0.196813     -0.194337     -0.236473
H            -0.143897     -0.138163     -0.217483
H            -0.222874     -0.182181     -0.310524
O            -0.316551      0.214932     -0.350807
H            -0.257516      0.231856     -0.401261
H            -0.377016      0.264988     -0.363202
O            -0.040550      0.003282     -0.305757
H            -0.088016      0.061990     -0.330467
H             0.015497     -0.010311     -0.360342
O             0.051196      0.306384      0.069260
H             0.042893      0.229631      0.050493
H             0.066975      0.348177      0.003535
O             0.409741      0.294625     -0.194044
H             0.380820      0.368517     -0.191660
H             0.364929      0.247111     -0.148755
O            -0.241069      0.019689      0.366189
H            -0.162409      0.030670      0.366904
H            -0.261807     -0.018949      0.299924
O             0.254249     -0.251862     -0.334042
H             0.295565     -0.257503     -0.401658
H             0.180595     -0.279274     -0.345643
O            -0.224622     -0.161523      0.071794
H            -0.177983     -0.210625      0.113365
H            -0.195145     -0.152624     -0.001439
O             0.461943      0.486507      0.098507
H            -0.486968      0.480707      0.159051
H             0.426903      0.416110      0.086636
O            -0.342374      0.024178     -0.097427
H            -0.388854      0.025259     -0.161865
H            -0.273169     -0.010532     -0.115225
O             0.086680     -0.241136      0.398606
H             0.007980     -0.247889      0.389786
H             0.103763     -0.170263      0.430229
O             0.456778     -0.090188     -0.042477
H             0.483793     -0.164145     -0.031886
H            -0.482280     -0.039203     -0.040546
O            -0.203170     -0.445492     -0.263725
H            -0.153193     -0.491179     -0.222250
H            -0.188868     -0.369057     -0.247358
O            -0.281988     -0.337832     -0.067553
H            -0.271500     -0.301124      0.002137
H            -0.277062     -0.284677     -0.126428
O            -0.419683      0.230505     -0.035239
H            -0.433428      0.285408     -0.090992
H            -0.368593      0.176476     -0.063326
O             0.255679      0.493963     -0.261660
H             0.243046      0.464565     -0.188959
H             0.210946     -0.441202     -0.272148
O            -0.050061      0.442330     -0.124998
H            -0.029836      0.388222     -0.179583
H            -0.096002      0.408324     -0.069777
O             0.308357     -0.020865     -0.463791
H             0.302239     -0.001295      0.459456
H             0.345065      0.037566     -0.424382
O            -0.470136      0.175125      0.383112
H            -0.399024      0.140086      0.378027
H            -0.489126      0.185455      0.459547
O             0.406007      0.215806      0.109789
H             0.404974      0.157884      0.164136
H             0.470841      0.208496      0.064421
O             0.199426      0.256963      0.227859
H             0.135942      0.276668      0.184318
H             0.264896      0.262605      0.183205
O            -0.142625     -0.289126      0.366427
H            -0.220332     -0.282849      0.351013
H            -0.113783     -0.354199      0.331149
O             0.167247     -0.491258      0.401387
H             0.095897      0.487687      0.373498
H             0.172014     -0.412042      0.404883
O            -0.488172      0.394181      0.321853
H            -0.417776      0.357632      0.317483
H             0.456528      0.342377      0.345610
O             0.498162     -0.401951     -0.115464
H             0.460421     -0.443903     -0.059512
H            -0.427151     -0.387888     -0.092183
O             0.488150     -0.284279      0.074321
H            -0.461793     -0.278003      0.135692
H             0.453111     -0.355629      0.075910
data_nwchem_pspw

_audit_creation_date   Thu Nov  2 12:27:11 2017
_audit_creation_method    generated by PSPW module of NWChem


_cell_length_a            12.5858
_cell_length_b            12.5858
_cell_length_c            12.5858
_cell_angle_alpha         90.0000
_cell_angle_beta          90.0000
_cell_angle_gamma         90.0000

_symmetry_space_group_name_H-M     P1  

loop_
_atom_site_type_symbol
_atom_site_fract_x
_atom_site_fract_y
_atom_site_fract_z
C             0.110677     -0.158912     -0.074462
C             0.159887     -0.089249      0.010933
C             0.081115     -0.042924      0.096689
O             0.084557     -0.074491      0.191040
O             0.018101      0.030180      0.061111
N             0.257382     -0.140953      0.050606
H             0.033513     -0.125978     -0.100571
H             0.087831     -0.240703     -0.050344
H             0.169048     -0.175756     -0.139195
H             0.180039     -0.017977     -0.030523
H             0.236393     -0.192631      0.115293
H             0.315274     -0.084498      0.081843
H             0.286523     -0.192575     -0.004393
O             0.201610     -0.493371      0.137934
H             0.176736     -0.419822      0.128963
H             0.226286     -0.491237      0.212361
O             0.028818      0.242473     -0.224369
H             0.075095      0.197058     -0.267208
H             0.022294      0.303101     -0.274292
O             0.020247      0.430700     -0.366099
H            -0.017413      0.498839     -0.369615
H             0.015700      0.404407     -0.439276
O             0.462059     -0.494215     -0.365575
H             0.472943     -0.416437     -0.364001
H             0.397604     -0.499228     -0.323026
O             0.083006      0.269068      0.469096
H             0.050460      0.240923      0.404638
H             0.150717      0.297461      0.441034
O             0.301032     -0.254814     -0.120459
H             0.284622     -0.240483     -0.195255
H             0.355549     -0.309709     -0.130000
O            -0.214122      0.392866      0.017299
H            -0.251865      0.374957      0.082884
H            -0.271709      0.380990     -0.034078
O            -0.467684     -0.235905     -0.274617
H             0.489957     -0.190710     -0.226193
H            -0.477819     -0.302559     -0.233378
O             0.228549      0.369548     -0.056281
H             0.205251      0.388457      0.014410
H             0.250983      0.295850     -0.056114
O             0.302119      0.319299      0.428322
H             0.275578      0.393436      0.434205
H             0.268237      0.296754      0.362250
O            -0.128762     -0.400179      0.134764
H            -0.088383     -0.458933      0.165032
H            -0.168102     -0.438211      0.078989
O            -0.174382      0.242877     -0.136966
H            -0.105006      0.235306     -0.171117
H            -0.219420      0.261317     -0.198074
O            -0.179610      0.127417      0.085150
H            -0.181489      0.150334      0.010505
H            -0.109598      0.094398      0.090986
O             0.176498      0.127918     -0.329821
H             0.189764      0.171305     -0.393020
H             0.247268      0.117038     -0.300766
O            -0.328143      0.268335      0.183585
H            -0.359507      0.257098      0.112663
H            -0.273375      0.212764      0.181891
O             0.463883     -0.188321     -0.490914
H             0.467039     -0.194931     -0.413438
H             0.418444     -0.124649     -0.496773
O            -0.358440      0.422612     -0.173066
H            -0.406493      0.457354     -0.224340
H            -0.305573      0.478705     -0.169504
O             0.379701      0.059361     -0.233460
H             0.408188      0.026705     -0.168511
H             0.443321      0.056900     -0.277393
O            -0.305970      0.431818     -0.443614
H            -0.377235      0.457475     -0.460844
H            -0.286566      0.475446     -0.382492
O             0.090459     -0.035224     -0.492271
H             0.094295      0.029552      0.463709
H             0.164170     -0.038958     -0.470085
O             0.060972     -0.357551     -0.225535
H            -0.010347     -0.364452     -0.254708
H             0.062505     -0.417231     -0.174891
O             0.078384     -0.285277      0.114320
H             0.072064     -0.235650      0.172693
H             0.007853     -0.317081      0.107829
O            -0.205699      0.395925      0.351259
H            -0.237615      0.341167      0.306257
H            -0.256154      0.408076      0.407778
O            -0.003946      0.449452      0.260732
H             0.003872      0.417451      0.189976
H            -0.065074      0.413995      0.294112
O            -0.061944     -0.348954     -0.414094
H            -0.121965     -0.354384     -0.464316
H            -0.089439     -0.290501     -0.370058
O            -0.361437     -0.225790      0.312337
H            -0.430385     -0.233077      0.347373
H            -0.373264     -0.166876      0.261811
O             0.269834     -0.202569      0.283094
H             0.324030     -0.252387      0.309958
H             0.202946     -0.238262      0.302551
O             0.396821     -0.396768      0.341422
H             0.343104     -0.409403      0.397305
H             0.437020     -0.463359      0.346175
O            -0.111497     -0.049480     -0.112828
H            -0.058995     -0.036308     -0.056387
H            -0.071462     -0.023274     -0.173560
O            -0.116148      0.157109     -0.476613
H            -0.048491      0.192172     -0.492514
H            -0.126167      0.106275      0.464021
O            -0.354775     -0.013833      0.160671
H            -0.312361     -0.066693      0.120647
H            -0.321740      0.047856      0.124621
O             0.442269      0.217765     -0.408646
H             0.396365      0.250962     -0.462403
H             0.401432      0.229373     -0.345117
O            -0.025717      0.096761      0.303289
H            -0.006469      0.027740      0.269030
H            -0.015844      0.137634      0.236853
O             0.222656      0.153965     -0.085794
H             0.226308      0.124837     -0.158522
H             0.144703      0.153139     -0.075516
O             0.257653      0.048960      0.318023
H             0.247423      0.125696      0.306617
H             0.191918      0.022697      0.285211
O             0.405386     -0.007284      0.156060
H             0.480067     -0.014721      0.176583
H             0.365205      0.003590      0.221674
O            -0.283114     -0.150011     -0.459517
H            -0.330944     -0.208047     -0.482297
H            -0.283198     -0.104709      0.476946
O            -0.420589      0.009067     -0.314915
H            -0.386255     -0.054264     -0.345056
H            -0.374605      0.066766     -0.340177
O            -0.202049     -0.198734     -0.235744
H            -0.145751     -0.149979     -0.212165
H            -0.234034     -0.164838     -0.298508
O            -0.314540      0.209911     -0.348104
H            -0.276663      0.255873     -0.398698
H            -0.387963      0.236130     -0.354882
O            -0.037953     -0.000390     -0.307490
H            -0.086265      0.056961     -0.330970
H             0.010197     -0.000696     -0.368193
O             0.053725      0.302506      0.067268
H             0.024191      0.231233      0.054005
H             0.048032      0.332351     -0.004090
O             0.419114      0.294357     -0.194062
H             0.374448      0.358715     -0.187934
H             0.370385      0.239782     -0.165806
O            -0.243990      0.015825      0.363834
H            -0.170689      0.017247      0.334948
H            -0.280938     -0.008765      0.299814
O             0.253663     -0.253972     -0.333841
H             0.289555     -0.243835     -0.402114
H             0.189317     -0.296445     -0.345544
O            -0.224569     -0.158511      0.077556
H            -0.174035     -0.201248      0.118757
H            -0.180890     -0.131367      0.018549
O             0.460350      0.485110      0.097477
H            -0.489352      0.476139      0.157196
H             0.420945      0.417773      0.105963
O            -0.345770      0.022351     -0.100966
H            -0.358031      0.023070     -0.178605
H            -0.281692     -0.020880     -0.098057
O             0.090668     -0.242937      0.397401
H             0.017939     -0.232445      0.371536
H             0.098199     -0.175491      0.436485
O             0.458252     -0.089586     -0.043599
H             0.486421     -0.160893     -0.030785
H            -0.478515     -0.046209     -0.029358
O            -0.202500     -0.445358     -0.265398
H            -0.148020     -0.477187     -0.220348
H            -0.193609     -0.369605     -0.248892
O            -0.281004     -0.342259     -0.067665
H            -0.272556     -0.295286     -0.005167
H            -0.285607     -0.286204     -0.121909
O            -0.422917      0.232331     -0.033775
H            -0.436276      0.287534     -0.087309
H            -0.378971      0.179619     -0.069887
O             0.252077      0.489951     -0.261629
H             0.237165      0.466437     -0.188826
H             0.218346     -0.439822     -0.260721
O            -0.052432      0.434331     -0.123806
H            -0.046281      0.366936     -0.162753
H            -0.095592      0.412675     -0.063820
O             0.308057     -0.019518     -0.463055
H             0.293557      0.000680      0.463177
H             0.355466      0.038259     -0.440320
O            -0.464551      0.176662      0.381235
H            -0.403068      0.128902      0.387758
H            -0.481694      0.184604      0.457281
O             0.406097      0.215208      0.110402
H             0.409836      0.153147      0.157927
H             0.467437      0.201273      0.065035
O             0.200373      0.260014      0.233607
H             0.132591      0.268743      0.197999
H             0.245981      0.273394      0.171710
O            -0.140021     -0.288027      0.365200
H            -0.216017     -0.284417      0.349639
H            -0.118507     -0.344434      0.314898
O             0.173408     -0.492060      0.401146
H             0.106079      0.485955      0.367449
H             0.157968     -0.415222      0.408834
O            -0.485049      0.398867      0.328446
H            -0.432964      0.340400      0.315279
H             0.452830      0.351526      0.334895
O             0.499796     -0.402233     -0.117630
H             0.468081     -0.440598     -0.056686
H            -0.430654     -0.390285     -0.084766
O             0.490376     -0.286731      0.069239
H            -0.490080     -0.263576      0.141599
H             0.472470     -0.361535      0.084065
