data_nwchem_pspw

_audit_creation_date   Mon Nov  6 12:44:26 2017
_audit_creation_method    generated by PSPW module of NWChem


_cell_length_a            16.9354
_cell_length_b            16.9354
_cell_length_c            16.9354
_cell_angle_alpha         90.0000
_cell_angle_beta          90.0000
_cell_angle_gamma         90.0000

_symmetry_space_group_name_H-M     P1  

loop_
_atom_site_type_symbol
_atom_site_fract_x
_atom_site_fract_y
_atom_site_fract_z
B            -0.003852      0.010449     -0.107760
B            -0.058206      0.064744     -0.044284
B             0.050466     -0.043874     -0.044284
B            -0.058206     -0.043874     -0.044284
B             0.050466      0.064744     -0.044284
B            -0.080703      0.010449      0.046307
B            -0.003852     -0.066401      0.046307
B            -0.003852      0.087300      0.046307
B             0.072939      0.010449      0.046307
B            -0.003852      0.010449      0.109831
Cl           -0.003852      0.010449      0.215585
Cl            0.172966      0.010449      0.083259
Cl           -0.003852      0.010449     -0.213514
Cl            0.121181     -0.114584     -0.081247
Cl            0.121181      0.135483     -0.081247
Cl           -0.128886      0.135483     -0.081247
Cl           -0.128886     -0.114584     -0.081247
Cl           -0.180671      0.010449      0.083259
Cl           -0.003852     -0.166369      0.083259
Cl           -0.003852      0.187268      0.083259
C             0.040540      0.129047     -0.438309
C             0.065257      0.054729     -0.470077
N             0.084926     -0.004917     -0.495585
H             0.014597      0.164357     -0.484248
H             0.090240      0.160460     -0.413627
H            -0.002913      0.120012     -0.392606
C            -0.203109      0.365356      0.067010
C            -0.231334      0.286822      0.074686
N            -0.253890      0.223936      0.080661
H            -0.209958      0.396828      0.122113
H            -0.235703      0.395943      0.021574
H            -0.141404      0.364765      0.051132
C             0.124724     -0.322904      0.269909
C             0.210579     -0.326447      0.268374
N             0.278780     -0.329164      0.267134
H             0.103054     -0.288775      0.220604
H             0.104707     -0.295565      0.323938
H             0.100042     -0.381598      0.266426
C             0.342551      0.211891     -0.238610
C             0.406736      0.181009     -0.284076
N             0.457930      0.156327     -0.320863
H             0.362864      0.260310     -0.202472
H             0.318578      0.166660     -0.200524
H             0.296317      0.233030     -0.277050
C            -0.270718      0.396415      0.480559
C            -0.208010      0.426884     -0.471258
N            -0.157701      0.450916     -0.432877
H            -0.325279      0.426706      0.493432
H            -0.278926      0.334356      0.491956
H            -0.257019      0.404268      0.418914
C            -0.313233     -0.221165      0.370054
C            -0.303136     -0.244135      0.449119
N            -0.294810     -0.262794     -0.486991
H            -0.364604     -0.184024      0.364327
H            -0.320614     -0.272596      0.333268
H            -0.261979     -0.188925      0.349978
C             0.374024     -0.491099      0.382336
C             0.429765      0.445247      0.400700
N             0.473932      0.395352      0.415462
H             0.377921     -0.475511      0.320690
H             0.387250     -0.439491      0.417292
H             0.314326      0.490419      0.394972
C            -0.436702     -0.129051     -0.205307
C            -0.490435     -0.145643     -0.143011
N             0.467110     -0.158752     -0.092703
H            -0.407414     -0.073723     -0.195446
H            -0.467938     -0.126630     -0.260812
H            -0.392298     -0.174754     -0.208554
C            -0.109046      0.431607      0.351454
C            -0.081648      0.365356      0.306224
N            -0.059977      0.312390      0.269850
H            -0.094048      0.486049      0.321871
H            -0.082415      0.431607      0.409380
H            -0.172404      0.428832      0.357949
C            -0.259145     -0.256830     -0.292993
C            -0.190532     -0.307316     -0.304684
N            -0.136385     -0.347291     -0.314604
H            -0.276978     -0.231380     -0.348852
H            -0.245387     -0.209415     -0.252604
H            -0.307860     -0.290428     -0.269255
C             0.184185      0.367836     -0.106284
C             0.261597      0.333352     -0.095301
N             0.323124      0.305895     -0.086207
H             0.141848      0.339434     -0.068021
H             0.165113      0.360809     -0.166749
H             0.185661      0.430072     -0.092467
C             0.479214     -0.440291      0.207850
C            -0.481755     -0.364828      0.201237
N            -0.450814     -0.304659      0.196277
H             0.464689     -0.452219      0.268610
H            -0.482641     -0.486762      0.186475
H             0.425540     -0.440350      0.173366
C             0.133227     -0.405630      0.019860
C             0.204557     -0.454699      0.026107
N             0.261065     -0.493139      0.031534
H             0.112206     -0.404213     -0.040422
H             0.146099     -0.345933      0.038230
H             0.086875     -0.428895      0.057125
C             0.449691      0.385609     -0.364086
C            -0.479157      0.344571     -0.386288
N            -0.422353      0.311977     -0.403707
H             0.464275      0.438516     -0.331610
H             0.413199      0.348409     -0.327299
H             0.416742      0.402083     -0.416107
C             0.175918      0.381062     -0.376368
C             0.231010      0.410232     -0.319269
N             0.275178      0.433792     -0.273802
H             0.142557      0.332584     -0.351922
H             0.206505      0.360809     -0.428330
H             0.135353      0.427356     -0.393138
C            -0.270364     -0.428068     -0.028931
C            -0.301010     -0.442358      0.048162
N            -0.325160     -0.454345      0.109949
H            -0.317780     -0.420097     -0.070796
H            -0.235054     -0.477196     -0.047000
H            -0.233991     -0.375693     -0.028665
C             0.325664     -0.039475      0.262056
C             0.267147     -0.080159      0.308763
N             0.220854     -0.112695      0.346435
H             0.309957      0.022005      0.255679
H             0.329915     -0.065811      0.204012
H             0.382704     -0.043130      0.290458
C            -0.028989     -0.300407     -0.168107
C            -0.063402     -0.330167     -0.097013
N            -0.090741     -0.354082     -0.040014
H             0.018816     -0.260550     -0.154526
H            -0.072672     -0.269053     -0.202354
H            -0.006232     -0.348472     -0.203240
C            -0.301778      0.079565     -0.310884
C            -0.279458     -0.000853     -0.292579
N            -0.262216     -0.064984     -0.278113
H            -0.289673      0.092437     -0.372294
H            -0.268829      0.120426     -0.274747
H            -0.364191      0.087713     -0.300137
C            -0.068008      0.497768     -0.242153
C             0.009350     -0.478909     -0.257033
N             0.072113     -0.459600     -0.269078
H            -0.074208      0.480585     -0.181215
H            -0.082888      0.448640     -0.279471
H            -0.107865     -0.454463     -0.254553
C            -0.472957      0.018923      0.031333
C            -0.431919     -0.038796      0.082197
N            -0.399856     -0.084411      0.122290
H            -0.499883     -0.010666     -0.018379
H            -0.432096      0.062618      0.009320
H             0.481222      0.048754      0.064217
C             0.324305      0.239289     -0.439667
C             0.304347      0.299163     -0.498124
N             0.288227      0.346342      0.455523
H             0.307241      0.258952     -0.381387
H             0.387250      0.228129     -0.439962
H             0.293660      0.184906     -0.452717
C            -0.260444     -0.172392      0.213637
C            -0.216099     -0.225889      0.164863
N            -0.180375     -0.268167      0.125774
H            -0.241136     -0.112399      0.204366
H            -0.252237     -0.187331      0.275106
H            -0.322385     -0.176643      0.199406
C            -0.320200     -0.019340      0.356828
C            -0.260503      0.035580      0.333917
N            -0.212616      0.079683      0.315435
H            -0.375528      0.011176      0.365862
H            -0.303549     -0.048392      0.411211
H            -0.328054     -0.063331      0.311302
C             0.415475     -0.470196     -0.193792
C             0.494363      0.495084     -0.204657
N            -0.443342      0.467331     -0.213101
H             0.415475     -0.408550     -0.210916
H             0.397584     -0.474271     -0.132737
H             0.372843      0.498981     -0.229516
C             0.410810     -0.335245      0.032183
C             0.364930     -0.309028     -0.031145
N             0.327258     -0.287594     -0.082192
H             0.401422     -0.298341      0.082846
H             0.472220     -0.333297      0.016350
H             0.395458     -0.395179      0.047193
C             0.108132      0.461099      0.160848
C             0.036253     -0.495737      0.164332
N            -0.021431     -0.461135      0.167166
H             0.106656      0.413152      0.202477
H             0.157200      0.499067      0.174961
H             0.116398      0.437303      0.102332
C            -0.031292     -0.390396      0.365449
C            -0.065823     -0.314461      0.343306
N            -0.093162     -0.254350      0.325591
H            -0.060391     -0.413484      0.417411
H             0.030821     -0.383724      0.378203
H            -0.038106     -0.432379      0.317915
C            -0.388578     -0.264506      0.035295
C            -0.348484     -0.243013     -0.035072
N            -0.316303     -0.225889     -0.091817
H            -0.381138     -0.219453      0.079658
H            -0.365549     -0.319480      0.057792
H            -0.450755     -0.271651      0.023781
C             0.449723      0.440228      0.037604
C             0.499854     -0.494937      0.010183
N            -0.460938     -0.443566     -0.012044
H             0.465607      0.386022      0.008003
H             0.388490      0.452865      0.025233
H             0.456572      0.431784      0.100442
C             0.468468      0.003124      0.264477
C            -0.470005      0.061732      0.256269
N            -0.420995      0.108321      0.249656
H             0.493209     -0.052820      0.282605
H             0.438353     -0.004928      0.208736
H             0.425835      0.021857      0.308113
C             0.418546      0.251098      0.342479
C             0.377330      0.183725      0.378144
N             0.344264      0.130523      0.406782
H             0.427875      0.241887      0.280066
H             0.475231      0.259719      0.370527
H             0.384062      0.304300      0.350214
C            -0.343997     -0.433206     -0.409139
C            -0.382850     -0.455112     -0.482004
N            -0.413968     -0.472413      0.459893
H            -0.283945     -0.415255     -0.421067
H            -0.342993     -0.482510     -0.368751
H            -0.374702     -0.384668     -0.381505
C             0.461650      0.053023     -0.483271
C            -0.479066      0.110860      0.499900
N            -0.431591      0.156740      0.486083
H             0.411637      0.080391     -0.454869
H             0.484915      0.007969     -0.444890
H             0.442047      0.025672      0.462582
C            -0.304317      0.082281     -0.108941
C            -0.387102      0.097929     -0.131084
N            -0.452349      0.110092     -0.148503
H            -0.287075      0.119068     -0.059695
H            -0.265522      0.094622     -0.157950
H            -0.296936      0.021178     -0.092171
C             0.485919     -0.324499      0.380624
C             0.476885     -0.241123      0.373715
N             0.469681     -0.174163      0.368401
H            -0.465662     -0.338198      0.419595
H             0.497551     -0.350066      0.323525
H             0.432717     -0.350421      0.404184
C            -0.210195     -0.073605     -0.491511
C            -0.178427     -0.002651     -0.456909
N            -0.152623      0.053808     -0.429275
H            -0.258968     -0.059552      0.469931
H            -0.230920     -0.112990     -0.445985
H            -0.165259     -0.103306      0.474359
C            -0.339037      0.272592      0.382218
C            -0.355629      0.328923      0.322875
N            -0.369033      0.374508      0.275401
H            -0.344233      0.299459      0.439731
H            -0.279753      0.250567      0.375073
H            -0.380075      0.224055      0.378203
C             0.313795     -0.283815      0.462523
C             0.275650     -0.316468     -0.470458
N             0.244945     -0.342804     -0.416547
H             0.281791     -0.232739      0.441856
H             0.316275     -0.326861      0.415580
H             0.373138     -0.266160      0.477462
C            -0.464068     -0.257893     -0.387941
C            -0.498551     -0.336485     -0.393492
N             0.473991     -0.398663     -0.397743
H            -0.417007     -0.251339     -0.430515
H            -0.440448     -0.248209     -0.329484
H             0.491470     -0.213666     -0.399574
C            -0.443610      0.297864     -0.060286
C            -0.444732      0.303533      0.024283
N            -0.445205      0.308257      0.091821
H            -0.390290      0.268695     -0.079417
H            -0.445972      0.355908     -0.086148
H            -0.493742      0.264266     -0.080893
C            -0.196850      0.465737     -0.107406
C            -0.120442      0.434264     -0.096895
N            -0.058796      0.408874     -0.088924
H            -0.236530      0.420979     -0.128131
H            -0.195374     -0.487143     -0.150274
H            -0.218225      0.488825     -0.052255
C             0.147517      0.177938      0.311066
C             0.150823      0.261078      0.290458
N             0.153657      0.327093      0.273806
H             0.164050      0.169849      0.372003
H             0.187610      0.144458      0.274515
H             0.088410      0.155441      0.302799
C             0.200423     -0.217268     -0.251954
C             0.274233     -0.188925     -0.281951
N             0.333635     -0.166428     -0.305629
H             0.206623     -0.234156     -0.190840
H             0.181646     -0.268403     -0.285257
H             0.155842     -0.171978     -0.256619
C             0.096204     -0.212485     -0.477222
C             0.054392     -0.212072     -0.405301
N             0.020812     -0.211540     -0.347317
H             0.058012     -0.231144      0.475363
H             0.145686     -0.252401     -0.473442
H             0.117816     -0.153910     -0.489976
C            -0.325279     -0.450329      0.286502
C            -0.265168     -0.438048      0.344250
N            -0.216926     -0.428600      0.390662
H            -0.311343      0.498535      0.250896
H            -0.329825     -0.399548      0.248239
H            -0.381492     -0.459836      0.315081
C             0.214772     -0.179359      0.107410
C             0.297262     -0.162649      0.093416
N             0.363041     -0.149245      0.082610
H             0.178398     -0.136786      0.077000
H             0.202018     -0.176348      0.169823
H             0.200069     -0.237640      0.086153
C             0.334757      0.031063     -0.390244
C             0.260239      0.033950     -0.351627
N             0.200364      0.036336     -0.320922
H             0.353003      0.089544     -0.408372
H             0.331864     -0.006852     -0.441202
H             0.378511      0.007934     -0.350387
C            -0.152151      0.262967      0.470258
C            -0.067063      0.271647      0.481005
N             0.000411      0.279146      0.489154
H            -0.171814      0.206517      0.492460
H            -0.166913      0.266805      0.408317
H            -0.183092      0.309024     -0.498565
C             0.168656      0.476806      0.499959
C             0.095377     -0.490423     -0.483330
N             0.035969     -0.463379     -0.469926
H             0.191566     -0.498512      0.445931
H             0.163459      0.413743      0.493287
H             0.209399      0.489501     -0.452803
C            -0.242317      0.406276     -0.260516
C            -0.264223      0.334592     -0.221072
N            -0.282233      0.277611     -0.189305
H            -0.285894      0.451506     -0.249829
H            -0.238242      0.396120     -0.323284
H            -0.185926      0.426943     -0.239259
C             0.270985     -0.489682      0.232296
C             0.331037      0.448790      0.228399
N             0.378393      0.400076      0.225683
H             0.232900     -0.499484      0.282368
H             0.235261     -0.489918      0.179507
H             0.298383     -0.432760      0.238319
C            -0.489018     -0.050021     -0.362728
C            -0.435875     -0.047034     -0.431519
N            -0.393951     -0.044613     -0.485665
H             0.460910     -0.087481     -0.374774
H             0.489843      0.008418     -0.348320
H            -0.457959     -0.073310     -0.312124
C             0.391325      0.013774     -0.213396
C             0.362096      0.027975     -0.133918
N             0.338477      0.039029     -0.070678
H             0.395222     -0.048852     -0.224497
H             0.449132      0.039708     -0.221013
H             0.351526      0.039572     -0.255911
C            -0.078754      0.268163     -0.358713
C            -0.017032      0.306072     -0.315195
N             0.031187      0.336659     -0.279884
H            -0.124930      0.249386     -0.318737
H            -0.056375      0.217382     -0.389654
H            -0.103554      0.308965     -0.401050
C             0.242997      0.208348      0.069519
C             0.288109      0.170557      0.130084
N             0.324305      0.140266      0.178681
H             0.281142      0.244190      0.033287
H             0.198120      0.245548      0.095246
H             0.215185      0.164534      0.032626
data_nwchem_pspw

_audit_creation_date   Mon Nov  6 12:56:39 2017
_audit_creation_method    generated by PSPW module of NWChem


_cell_length_a            16.9354
_cell_length_b            16.9354
_cell_length_c            16.9354
_cell_angle_alpha         90.0000
_cell_angle_beta          90.0000
_cell_angle_gamma         90.0000

_symmetry_space_group_name_H-M     P1  

loop_
_atom_site_type_symbol
_atom_site_fract_x
_atom_site_fract_y
_atom_site_fract_z
B            -0.003852      0.010449     -0.107760
B            -0.058206      0.064744     -0.044284
B             0.050466     -0.043874     -0.044284
B            -0.058206     -0.043874     -0.044284
B             0.050466      0.064744     -0.044284
B            -0.080703      0.010449      0.046307
B            -0.003852     -0.066401      0.046307
B            -0.003852      0.087300      0.046307
B             0.072939      0.010449      0.046307
B            -0.003852      0.010449      0.109831
Cl           -0.003852      0.010449      0.215585
Cl            0.172966      0.010449      0.083259
Cl           -0.003852      0.010449     -0.213514
Cl            0.121181     -0.114584     -0.081247
Cl            0.121181      0.135483     -0.081247
Cl           -0.128886      0.135483     -0.081247
Cl           -0.128886     -0.114584     -0.081247
Cl           -0.180671      0.010449      0.083259
Cl           -0.003852     -0.166369      0.083259
Cl           -0.003852      0.187268      0.083259
C             0.040540      0.129047     -0.438309
C             0.065257      0.054729     -0.470077
N             0.084926     -0.004917     -0.495585
H             0.014597      0.164357     -0.484248
H             0.090240      0.160460     -0.413627
H            -0.002913      0.120012     -0.392606
C            -0.203109      0.365356      0.067010
C            -0.231334      0.286822      0.074686
N            -0.253890      0.223936      0.080661
H            -0.209958      0.396828      0.122113
H            -0.235703      0.395943      0.021574
H            -0.141404      0.364765      0.051132
C             0.124724     -0.322904      0.269909
C             0.210579     -0.326447      0.268374
N             0.278780     -0.329164      0.267134
H             0.103054     -0.288775      0.220604
H             0.104707     -0.295565      0.323938
H             0.100042     -0.381598      0.266426
C             0.342551      0.211891     -0.238610
C             0.406736      0.181009     -0.284076
N             0.457930      0.156327     -0.320863
H             0.362864      0.260310     -0.202472
H             0.318578      0.166660     -0.200524
H             0.296317      0.233030     -0.277050
C            -0.270718      0.396415      0.480559
C            -0.208010      0.426884     -0.471258
N            -0.157701      0.450916     -0.432877
H            -0.325279      0.426706      0.493432
H            -0.278926      0.334356      0.491956
H            -0.257019      0.404268      0.418914
C            -0.313233     -0.221165      0.370054
C            -0.303136     -0.244135      0.449119
N            -0.294810     -0.262794     -0.486991
H            -0.364604     -0.184024      0.364327
H            -0.320614     -0.272596      0.333268
H            -0.261979     -0.188925      0.349978
C             0.374024     -0.491099      0.382336
C             0.429765      0.445247      0.400700
N             0.473932      0.395352      0.415462
H             0.377921     -0.475511      0.320690
H             0.387250     -0.439491      0.417292
H             0.314326      0.490419      0.394972
C            -0.436702     -0.129051     -0.205307
C            -0.490435     -0.145643     -0.143011
N             0.467110     -0.158752     -0.092703
H            -0.407414     -0.073723     -0.195446
H            -0.467938     -0.126630     -0.260812
H            -0.392298     -0.174754     -0.208554
C            -0.109046      0.431607      0.351454
C            -0.081648      0.365356      0.306224
N            -0.059977      0.312390      0.269850
H            -0.094048      0.486049      0.321871
H            -0.082415      0.431607      0.409380
H            -0.172404      0.428832      0.357949
C            -0.259145     -0.256830     -0.292993
C            -0.190532     -0.307316     -0.304684
N            -0.136385     -0.347291     -0.314604
H            -0.276978     -0.231380     -0.348852
H            -0.245387     -0.209415     -0.252604
H            -0.307860     -0.290428     -0.269255
C             0.184185      0.367836     -0.106284
C             0.261597      0.333352     -0.095301
N             0.323124      0.305895     -0.086207
H             0.141848      0.339434     -0.068021
H             0.165113      0.360809     -0.166749
H             0.185661      0.430072     -0.092467
C             0.479214     -0.440291      0.207850
C            -0.481755     -0.364828      0.201237
N            -0.450814     -0.304659      0.196277
H             0.464689     -0.452219      0.268610
H            -0.482641     -0.486762      0.186475
H             0.425540     -0.440350      0.173366
C             0.133227     -0.405630      0.019860
C             0.204557     -0.454699      0.026107
N             0.261065     -0.493139      0.031534
H             0.112206     -0.404213     -0.040422
H             0.146099     -0.345933      0.038230
H             0.086875     -0.428895      0.057125
C             0.449691      0.385609     -0.364086
C            -0.479157      0.344571     -0.386288
N            -0.422353      0.311977     -0.403707
H             0.464275      0.438516     -0.331610
H             0.413199      0.348409     -0.327299
H             0.416742      0.402083     -0.416107
C             0.175918      0.381062     -0.376368
C             0.231010      0.410232     -0.319269
N             0.275178      0.433792     -0.273802
H             0.142557      0.332584     -0.351922
H             0.206505      0.360809     -0.428330
H             0.135353      0.427356     -0.393138
C            -0.270364     -0.428068     -0.028931
C            -0.301010     -0.442358      0.048162
N            -0.325160     -0.454345      0.109949
H            -0.317780     -0.420097     -0.070796
H            -0.235054     -0.477196     -0.047000
H            -0.233991     -0.375693     -0.028665
C             0.325664     -0.039475      0.262056
C             0.267147     -0.080159      0.308763
N             0.220854     -0.112695      0.346435
H             0.309957      0.022005      0.255679
H             0.329915     -0.065811      0.204012
H             0.382704     -0.043130      0.290458
C            -0.028989     -0.300407     -0.168107
C            -0.063402     -0.330167     -0.097013
N            -0.090741     -0.354082     -0.040014
H             0.018816     -0.260550     -0.154526
H            -0.072672     -0.269053     -0.202354
H            -0.006232     -0.348472     -0.203240
C            -0.301778      0.079565     -0.310884
C            -0.279458     -0.000853     -0.292579
N            -0.262216     -0.064984     -0.278113
H            -0.289673      0.092437     -0.372294
H            -0.268829      0.120426     -0.274747
H            -0.364191      0.087713     -0.300137
C            -0.068008      0.497768     -0.242153
C             0.009350     -0.478909     -0.257033
N             0.072113     -0.459600     -0.269078
H            -0.074208      0.480585     -0.181215
H            -0.082888      0.448640     -0.279471
H            -0.107865     -0.454463     -0.254553
C            -0.472957      0.018923      0.031333
C            -0.431919     -0.038796      0.082197
N            -0.399856     -0.084411      0.122290
H            -0.499883     -0.010666     -0.018379
H            -0.432096      0.062618      0.009320
H             0.481222      0.048754      0.064217
C             0.324305      0.239289     -0.439667
C             0.304347      0.299163     -0.498124
N             0.288227      0.346342      0.455523
H             0.307241      0.258952     -0.381387
H             0.387250      0.228129     -0.439962
H             0.293660      0.184906     -0.452717
C            -0.260444     -0.172392      0.213637
C            -0.216099     -0.225889      0.164863
N            -0.180375     -0.268167      0.125774
H            -0.241136     -0.112399      0.204366
H            -0.252237     -0.187331      0.275106
H            -0.322385     -0.176643      0.199406
C            -0.320200     -0.019340      0.356828
C            -0.260503      0.035580      0.333917
N            -0.212616      0.079683      0.315435
H            -0.375528      0.011176      0.365862
H            -0.303549     -0.048392      0.411211
H            -0.328054     -0.063331      0.311302
C             0.415475     -0.470196     -0.193792
C             0.494363      0.495084     -0.204657
N            -0.443342      0.467331     -0.213101
H             0.415475     -0.408550     -0.210916
H             0.397584     -0.474271     -0.132737
H             0.372843      0.498981     -0.229516
C             0.410810     -0.335245      0.032183
C             0.364930     -0.309028     -0.031145
N             0.327258     -0.287594     -0.082192
H             0.401422     -0.298341      0.082846
H             0.472220     -0.333297      0.016350
H             0.395458     -0.395179      0.047193
C             0.108132      0.461099      0.160848
C             0.036253     -0.495737      0.164332
N            -0.021431     -0.461135      0.167166
H             0.106656      0.413152      0.202477
H             0.157200      0.499067      0.174961
H             0.116398      0.437303      0.102332
C            -0.031292     -0.390396      0.365449
C            -0.065823     -0.314461      0.343306
N            -0.093162     -0.254350      0.325591
H            -0.060391     -0.413484      0.417411
H             0.030821     -0.383724      0.378203
H            -0.038106     -0.432379      0.317915
C            -0.388578     -0.264506      0.035295
C            -0.348484     -0.243013     -0.035072
N            -0.316303     -0.225889     -0.091817
H            -0.381138     -0.219453      0.079658
H            -0.365549     -0.319480      0.057792
H            -0.450755     -0.271651      0.023781
C             0.449723      0.440228      0.037604
C             0.499854     -0.494937      0.010183
N            -0.460938     -0.443566     -0.012044
H             0.465607      0.386022      0.008003
H             0.388490      0.452865      0.025233
H             0.456572      0.431784      0.100442
C             0.468468      0.003124      0.264477
C            -0.470005      0.061732      0.256269
N            -0.420995      0.108321      0.249656
H             0.493209     -0.052820      0.282605
H             0.438353     -0.004928      0.208736
H             0.425835      0.021857      0.308113
C             0.418546      0.251098      0.342479
C             0.377330      0.183725      0.378144
N             0.344264      0.130523      0.406782
H             0.427875      0.241887      0.280066
H             0.475231      0.259719      0.370527
H             0.384062      0.304300      0.350214
C            -0.343997     -0.433206     -0.409139
C            -0.382850     -0.455112     -0.482004
N            -0.413968     -0.472413      0.459893
H            -0.283945     -0.415255     -0.421067
H            -0.342993     -0.482510     -0.368751
H            -0.374702     -0.384668     -0.381505
C             0.461650      0.053023     -0.483271
C            -0.479066      0.110860      0.499900
N            -0.431591      0.156740      0.486083
H             0.411637      0.080391     -0.454869
H             0.484915      0.007969     -0.444890
H             0.442047      0.025672      0.462582
C            -0.304317      0.082281     -0.108941
C            -0.387102      0.097929     -0.131084
N            -0.452349      0.110092     -0.148503
H            -0.287075      0.119068     -0.059695
H            -0.265522      0.094622     -0.157950
H            -0.296936      0.021178     -0.092171
C             0.485919     -0.324499      0.380624
C             0.476885     -0.241123      0.373715
N             0.469681     -0.174163      0.368401
H            -0.465662     -0.338198      0.419595
H             0.497551     -0.350066      0.323525
H             0.432717     -0.350421      0.404184
C            -0.210195     -0.073605     -0.491511
C            -0.178427     -0.002651     -0.456909
N            -0.152623      0.053808     -0.429275
H            -0.258968     -0.059552      0.469931
H            -0.230920     -0.112990     -0.445985
H            -0.165259     -0.103306      0.474359
C            -0.339037      0.272592      0.382218
C            -0.355629      0.328923      0.322875
N            -0.369033      0.374508      0.275401
H            -0.344233      0.299459      0.439731
H            -0.279753      0.250567      0.375073
H            -0.380075      0.224055      0.378203
C             0.313795     -0.283815      0.462523
C             0.275650     -0.316468     -0.470458
N             0.244945     -0.342804     -0.416547
H             0.281791     -0.232739      0.441856
H             0.316275     -0.326861      0.415580
H             0.373138     -0.266160      0.477462
C            -0.464068     -0.257893     -0.387941
C            -0.498551     -0.336485     -0.393492
N             0.473991     -0.398663     -0.397743
H            -0.417007     -0.251339     -0.430515
H            -0.440448     -0.248209     -0.329484
H             0.491470     -0.213666     -0.399574
C            -0.443610      0.297864     -0.060286
C            -0.444732      0.303533      0.024283
N            -0.445205      0.308257      0.091821
H            -0.390290      0.268695     -0.079417
H            -0.445972      0.355908     -0.086148
H            -0.493742      0.264266     -0.080893
C            -0.196850      0.465737     -0.107406
C            -0.120442      0.434264     -0.096895
N            -0.058796      0.408874     -0.088924
H            -0.236530      0.420979     -0.128131
H            -0.195374     -0.487143     -0.150274
H            -0.218225      0.488825     -0.052255
C             0.147517      0.177938      0.311066
C             0.150823      0.261078      0.290458
N             0.153657      0.327093      0.273806
H             0.164050      0.169849      0.372003
H             0.187610      0.144458      0.274515
H             0.088410      0.155441      0.302799
C             0.200423     -0.217268     -0.251954
C             0.274233     -0.188925     -0.281951
N             0.333635     -0.166428     -0.305629
H             0.206623     -0.234156     -0.190840
H             0.181646     -0.268403     -0.285257
H             0.155842     -0.171978     -0.256619
C             0.096204     -0.212485     -0.477222
C             0.054392     -0.212072     -0.405301
N             0.020812     -0.211540     -0.347317
H             0.058012     -0.231144      0.475363
H             0.145686     -0.252401     -0.473442
H             0.117816     -0.153910     -0.489976
C            -0.325279     -0.450329      0.286502
C            -0.265168     -0.438048      0.344250
N            -0.216926     -0.428600      0.390662
H            -0.311343      0.498535      0.250896
H            -0.329825     -0.399548      0.248239
H            -0.381492     -0.459836      0.315081
C             0.214772     -0.179359      0.107410
C             0.297262     -0.162649      0.093416
N             0.363041     -0.149245      0.082610
H             0.178398     -0.136786      0.077000
H             0.202018     -0.176348      0.169823
H             0.200069     -0.237640      0.086153
C             0.334757      0.031063     -0.390244
C             0.260239      0.033950     -0.351627
N             0.200364      0.036336     -0.320922
H             0.353003      0.089544     -0.408372
H             0.331864     -0.006852     -0.441202
H             0.378511      0.007934     -0.350387
C            -0.152151      0.262967      0.470258
C            -0.067063      0.271647      0.481005
N             0.000411      0.279146      0.489154
H            -0.171814      0.206517      0.492460
H            -0.166913      0.266805      0.408317
H            -0.183092      0.309024     -0.498565
C             0.168656      0.476806      0.499959
C             0.095377     -0.490423     -0.483330
N             0.035969     -0.463379     -0.469926
H             0.191566     -0.498512      0.445931
H             0.163459      0.413743      0.493287
H             0.209399      0.489501     -0.452803
C            -0.242317      0.406276     -0.260516
C            -0.264223      0.334592     -0.221072
N            -0.282233      0.277611     -0.189305
H            -0.285894      0.451506     -0.249829
H            -0.238242      0.396120     -0.323284
H            -0.185926      0.426943     -0.239259
C             0.270985     -0.489682      0.232296
C             0.331037      0.448790      0.228399
N             0.378393      0.400076      0.225683
H             0.232900     -0.499484      0.282368
H             0.235261     -0.489918      0.179507
H             0.298383     -0.432760      0.238319
C            -0.489018     -0.050021     -0.362728
C            -0.435875     -0.047034     -0.431519
N            -0.393951     -0.044613     -0.485665
H             0.460910     -0.087481     -0.374774
H             0.489843      0.008418     -0.348320
H            -0.457959     -0.073310     -0.312124
C             0.391325      0.013774     -0.213396
C             0.362096      0.027975     -0.133918
N             0.338477      0.039029     -0.070678
H             0.395222     -0.048852     -0.224497
H             0.449132      0.039708     -0.221013
H             0.351526      0.039572     -0.255911
C            -0.078754      0.268163     -0.358713
C            -0.017032      0.306072     -0.315195
N             0.031187      0.336659     -0.279884
H            -0.124930      0.249386     -0.318737
H            -0.056375      0.217382     -0.389654
H            -0.103554      0.308965     -0.401050
C             0.242997      0.208348      0.069519
C             0.288109      0.170557      0.130084
N             0.324305      0.140266      0.178681
H             0.281142      0.244190      0.033287
H             0.198120      0.245548      0.095246
H             0.215185      0.164534      0.032626
data_nwchem_pspw

_audit_creation_date   Mon Nov  6 13:15:07 2017
_audit_creation_method    generated by PSPW module of NWChem


_cell_length_a            16.9354
_cell_length_b            16.9354
_cell_length_c            16.9354
_cell_angle_alpha         90.0000
_cell_angle_beta          90.0000
_cell_angle_gamma         90.0000

_symmetry_space_group_name_H-M     P1  

loop_
_atom_site_type_symbol
_atom_site_fract_x
_atom_site_fract_y
_atom_site_fract_z
B            -0.003852      0.010449     -0.107760
B            -0.058206      0.064744     -0.044284
B             0.050466     -0.043874     -0.044284
B            -0.058206     -0.043874     -0.044284
B             0.050466      0.064744     -0.044284
B            -0.080703      0.010449      0.046307
B            -0.003852     -0.066401      0.046307
B            -0.003852      0.087300      0.046307
B             0.072939      0.010449      0.046307
B            -0.003852      0.010449      0.109831
Cl           -0.003852      0.010449      0.215585
Cl            0.172966      0.010449      0.083259
Cl           -0.003852      0.010449     -0.213514
Cl            0.121181     -0.114584     -0.081247
Cl            0.121181      0.135483     -0.081247
Cl           -0.128886      0.135483     -0.081247
Cl           -0.128886     -0.114584     -0.081247
Cl           -0.180671      0.010449      0.083259
Cl           -0.003852     -0.166369      0.083259
Cl           -0.003852      0.187268      0.083259
C             0.040540      0.129047     -0.438309
C             0.065257      0.054729     -0.470077
N             0.084926     -0.004917     -0.495585
H             0.014597      0.164357     -0.484248
H             0.090240      0.160460     -0.413627
H            -0.002913      0.120012     -0.392606
C            -0.203109      0.365356      0.067010
C            -0.231334      0.286822      0.074686
N            -0.253890      0.223936      0.080661
H            -0.209958      0.396828      0.122113
H            -0.235703      0.395943      0.021574
H            -0.141404      0.364765      0.051132
C             0.124724     -0.322904      0.269909
C             0.210579     -0.326447      0.268374
N             0.278780     -0.329164      0.267134
H             0.103054     -0.288775      0.220604
H             0.104707     -0.295565      0.323938
H             0.100042     -0.381598      0.266426
C             0.342551      0.211891     -0.238610
C             0.406736      0.181009     -0.284076
N             0.457930      0.156327     -0.320863
H             0.362864      0.260310     -0.202472
H             0.318578      0.166660     -0.200524
H             0.296317      0.233030     -0.277050
C            -0.270718      0.396415      0.480559
C            -0.208010      0.426884     -0.471258
N            -0.157701      0.450916     -0.432877
H            -0.325279      0.426706      0.493432
H            -0.278926      0.334356      0.491956
H            -0.257019      0.404268      0.418914
C            -0.313233     -0.221165      0.370054
C            -0.303136     -0.244135      0.449119
N            -0.294810     -0.262794     -0.486991
H            -0.364604     -0.184024      0.364327
H            -0.320614     -0.272596      0.333268
H            -0.261979     -0.188925      0.349978
C             0.374024     -0.491099      0.382336
C             0.429765      0.445247      0.400700
N             0.473932      0.395352      0.415462
H             0.377921     -0.475511      0.320690
H             0.387250     -0.439491      0.417292
H             0.314326      0.490419      0.394972
C            -0.436702     -0.129051     -0.205307
C            -0.490435     -0.145643     -0.143011
N             0.467110     -0.158752     -0.092703
H            -0.407414     -0.073723     -0.195446
H            -0.467938     -0.126630     -0.260812
H            -0.392298     -0.174754     -0.208554
C            -0.109046      0.431607      0.351454
C            -0.081648      0.365356      0.306224
N            -0.059977      0.312390      0.269850
H            -0.094048      0.486049      0.321871
H            -0.082415      0.431607      0.409380
H            -0.172404      0.428832      0.357949
C            -0.259145     -0.256830     -0.292993
C            -0.190532     -0.307316     -0.304684
N            -0.136385     -0.347291     -0.314604
H            -0.276978     -0.231380     -0.348852
H            -0.245387     -0.209415     -0.252604
H            -0.307860     -0.290428     -0.269255
C             0.184185      0.367836     -0.106284
C             0.261597      0.333352     -0.095301
N             0.323124      0.305895     -0.086207
H             0.141848      0.339434     -0.068021
H             0.165113      0.360809     -0.166749
H             0.185661      0.430072     -0.092467
C             0.479214     -0.440291      0.207850
C            -0.481755     -0.364828      0.201237
N            -0.450814     -0.304659      0.196277
H             0.464689     -0.452219      0.268610
H            -0.482641     -0.486762      0.186475
H             0.425540     -0.440350      0.173366
C             0.133227     -0.405630      0.019860
C             0.204557     -0.454699      0.026107
N             0.261065     -0.493139      0.031534
H             0.112206     -0.404213     -0.040422
H             0.146099     -0.345933      0.038230
H             0.086875     -0.428895      0.057125
C             0.449691      0.385609     -0.364086
C            -0.479157      0.344571     -0.386288
N            -0.422353      0.311977     -0.403707
H             0.464275      0.438516     -0.331610
H             0.413199      0.348409     -0.327299
H             0.416742      0.402083     -0.416107
C             0.175918      0.381062     -0.376368
C             0.231010      0.410232     -0.319269
N             0.275178      0.433792     -0.273802
H             0.142557      0.332584     -0.351922
H             0.206505      0.360809     -0.428330
H             0.135353      0.427356     -0.393138
C            -0.270364     -0.428068     -0.028931
C            -0.301010     -0.442358      0.048162
N            -0.325160     -0.454345      0.109949
H            -0.317780     -0.420097     -0.070796
H            -0.235054     -0.477196     -0.047000
H            -0.233991     -0.375693     -0.028665
C             0.325664     -0.039475      0.262056
C             0.267147     -0.080159      0.308763
N             0.220854     -0.112695      0.346435
H             0.309957      0.022005      0.255679
H             0.329915     -0.065811      0.204012
H             0.382704     -0.043130      0.290458
C            -0.028989     -0.300407     -0.168107
C            -0.063402     -0.330167     -0.097013
N            -0.090741     -0.354082     -0.040014
H             0.018816     -0.260550     -0.154526
H            -0.072672     -0.269053     -0.202354
H            -0.006232     -0.348472     -0.203240
C            -0.301778      0.079565     -0.310884
C            -0.279458     -0.000853     -0.292579
N            -0.262216     -0.064984     -0.278113
H            -0.289673      0.092437     -0.372294
H            -0.268829      0.120426     -0.274747
H            -0.364191      0.087713     -0.300137
C            -0.068008      0.497768     -0.242153
C             0.009350     -0.478909     -0.257033
N             0.072113     -0.459600     -0.269078
H            -0.074208      0.480585     -0.181215
H            -0.082888      0.448640     -0.279471
H            -0.107865     -0.454463     -0.254553
C            -0.472957      0.018923      0.031333
C            -0.431919     -0.038796      0.082197
N            -0.399856     -0.084411      0.122290
H            -0.499883     -0.010666     -0.018379
H            -0.432096      0.062618      0.009320
H             0.481222      0.048754      0.064217
C             0.324305      0.239289     -0.439667
C             0.304347      0.299163     -0.498124
N             0.288227      0.346342      0.455523
H             0.307241      0.258952     -0.381387
H             0.387250      0.228129     -0.439962
H             0.293660      0.184906     -0.452717
C            -0.260444     -0.172392      0.213637
C            -0.216099     -0.225889      0.164863
N            -0.180375     -0.268167      0.125774
H            -0.241136     -0.112399      0.204366
H            -0.252237     -0.187331      0.275106
H            -0.322385     -0.176643      0.199406
C            -0.320200     -0.019340      0.356828
C            -0.260503      0.035580      0.333917
N            -0.212616      0.079683      0.315435
H            -0.375528      0.011176      0.365862
H            -0.303549     -0.048392      0.411211
H            -0.328054     -0.063331      0.311302
C             0.415475     -0.470196     -0.193792
C             0.494363      0.495084     -0.204657
N            -0.443342      0.467331     -0.213101
H             0.415475     -0.408550     -0.210916
H             0.397584     -0.474271     -0.132737
H             0.372843      0.498981     -0.229516
C             0.410810     -0.335245      0.032183
C             0.364930     -0.309028     -0.031145
N             0.327258     -0.287594     -0.082192
H             0.401422     -0.298341      0.082846
H             0.472220     -0.333297      0.016350
H             0.395458     -0.395179      0.047193
C             0.108132      0.461099      0.160848
C             0.036253     -0.495737      0.164332
N            -0.021431     -0.461135      0.167166
H             0.106656      0.413152      0.202477
H             0.157200      0.499067      0.174961
H             0.116398      0.437303      0.102332
C            -0.031292     -0.390396      0.365449
C            -0.065823     -0.314461      0.343306
N            -0.093162     -0.254350      0.325591
H            -0.060391     -0.413484      0.417411
H             0.030821     -0.383724      0.378203
H            -0.038106     -0.432379      0.317915
C            -0.388578     -0.264506      0.035295
C            -0.348484     -0.243013     -0.035072
N            -0.316303     -0.225889     -0.091817
H            -0.381138     -0.219453      0.079658
H            -0.365549     -0.319480      0.057792
H            -0.450755     -0.271651      0.023781
C             0.449723      0.440228      0.037604
C             0.499854     -0.494937      0.010183
N            -0.460938     -0.443566     -0.012044
H             0.465607      0.386022      0.008003
H             0.388490      0.452865      0.025233
H             0.456572      0.431784      0.100442
C             0.468468      0.003124      0.264477
C            -0.470005      0.061732      0.256269
N            -0.420995      0.108321      0.249656
H             0.493209     -0.052820      0.282605
H             0.438353     -0.004928      0.208736
H             0.425835      0.021857      0.308113
C             0.418546      0.251098      0.342479
C             0.377330      0.183725      0.378144
N             0.344264      0.130523      0.406782
H             0.427875      0.241887      0.280066
H             0.475231      0.259719      0.370527
H             0.384062      0.304300      0.350214
C            -0.343997     -0.433206     -0.409139
C            -0.382850     -0.455112     -0.482004
N            -0.413968     -0.472413      0.459893
H            -0.283945     -0.415255     -0.421067
H            -0.342993     -0.482510     -0.368751
H            -0.374702     -0.384668     -0.381505
C             0.461650      0.053023     -0.483271
C            -0.479066      0.110860      0.499900
N            -0.431591      0.156740      0.486083
H             0.411637      0.080391     -0.454869
H             0.484915      0.007969     -0.444890
H             0.442047      0.025672      0.462582
C            -0.304317      0.082281     -0.108941
C            -0.387102      0.097929     -0.131084
N            -0.452349      0.110092     -0.148503
H            -0.287075      0.119068     -0.059695
H            -0.265522      0.094622     -0.157950
H            -0.296936      0.021178     -0.092171
C             0.485919     -0.324499      0.380624
C             0.476885     -0.241123      0.373715
N             0.469681     -0.174163      0.368401
H            -0.465662     -0.338198      0.419595
H             0.497551     -0.350066      0.323525
H             0.432717     -0.350421      0.404184
C            -0.210195     -0.073605     -0.491511
C            -0.178427     -0.002651     -0.456909
N            -0.152623      0.053808     -0.429275
H            -0.258968     -0.059552      0.469931
H            -0.230920     -0.112990     -0.445985
H            -0.165259     -0.103306      0.474359
C            -0.339037      0.272592      0.382218
C            -0.355629      0.328923      0.322875
N            -0.369033      0.374508      0.275401
H            -0.344233      0.299459      0.439731
H            -0.279753      0.250567      0.375073
H            -0.380075      0.224055      0.378203
C             0.313795     -0.283815      0.462523
C             0.275650     -0.316468     -0.470458
N             0.244945     -0.342804     -0.416547
H             0.281791     -0.232739      0.441856
H             0.316275     -0.326861      0.415580
H             0.373138     -0.266160      0.477462
C            -0.464068     -0.257893     -0.387941
C            -0.498551     -0.336485     -0.393492
N             0.473991     -0.398663     -0.397743
H            -0.417007     -0.251339     -0.430515
H            -0.440448     -0.248209     -0.329484
H             0.491470     -0.213666     -0.399574
C            -0.443610      0.297864     -0.060286
C            -0.444732      0.303533      0.024283
N            -0.445205      0.308257      0.091821
H            -0.390290      0.268695     -0.079417
H            -0.445972      0.355908     -0.086148
H            -0.493742      0.264266     -0.080893
C            -0.196850      0.465737     -0.107406
C            -0.120442      0.434264     -0.096895
N            -0.058796      0.408874     -0.088924
H            -0.236530      0.420979     -0.128131
H            -0.195374     -0.487143     -0.150274
H            -0.218225      0.488825     -0.052255
C             0.147517      0.177938      0.311066
C             0.150823      0.261078      0.290458
N             0.153657      0.327093      0.273806
H             0.164050      0.169849      0.372003
H             0.187610      0.144458      0.274515
H             0.088410      0.155441      0.302799
C             0.200423     -0.217268     -0.251954
C             0.274233     -0.188925     -0.281951
N             0.333635     -0.166428     -0.305629
H             0.206623     -0.234156     -0.190840
H             0.181646     -0.268403     -0.285257
H             0.155842     -0.171978     -0.256619
C             0.096204     -0.212485     -0.477222
C             0.054392     -0.212072     -0.405301
N             0.020812     -0.211540     -0.347317
H             0.058012     -0.231144      0.475363
H             0.145686     -0.252401     -0.473442
H             0.117816     -0.153910     -0.489976
C            -0.325279     -0.450329      0.286502
C            -0.265168     -0.438048      0.344250
N            -0.216926     -0.428600      0.390662
H            -0.311343      0.498535      0.250896
H            -0.329825     -0.399548      0.248239
H            -0.381492     -0.459836      0.315081
C             0.214772     -0.179359      0.107410
C             0.297262     -0.162649      0.093416
N             0.363041     -0.149245      0.082610
H             0.178398     -0.136786      0.077000
H             0.202018     -0.176348      0.169823
H             0.200069     -0.237640      0.086153
C             0.334757      0.031063     -0.390244
C             0.260239      0.033950     -0.351627
N             0.200364      0.036336     -0.320922
H             0.353003      0.089544     -0.408372
H             0.331864     -0.006852     -0.441202
H             0.378511      0.007934     -0.350387
C            -0.152151      0.262967      0.470258
C            -0.067063      0.271647      0.481005
N             0.000411      0.279146      0.489154
H            -0.171814      0.206517      0.492460
H            -0.166913      0.266805      0.408317
H            -0.183092      0.309024     -0.498565
C             0.168656      0.476806      0.499959
C             0.095377     -0.490423     -0.483330
N             0.035969     -0.463379     -0.469926
H             0.191566     -0.498512      0.445931
H             0.163459      0.413743      0.493287
H             0.209399      0.489501     -0.452803
C            -0.242317      0.406276     -0.260516
C            -0.264223      0.334592     -0.221072
N            -0.282233      0.277611     -0.189305
H            -0.285894      0.451506     -0.249829
H            -0.238242      0.396120     -0.323284
H            -0.185926      0.426943     -0.239259
C             0.270985     -0.489682      0.232296
C             0.331037      0.448790      0.228399
N             0.378393      0.400076      0.225683
H             0.232900     -0.499484      0.282368
H             0.235261     -0.489918      0.179507
H             0.298383     -0.432760      0.238319
C            -0.489018     -0.050021     -0.362728
C            -0.435875     -0.047034     -0.431519
N            -0.393951     -0.044613     -0.485665
H             0.460910     -0.087481     -0.374774
H             0.489843      0.008418     -0.348320
H            -0.457959     -0.073310     -0.312124
C             0.391325      0.013774     -0.213396
C             0.362096      0.027975     -0.133918
N             0.338477      0.039029     -0.070678
H             0.395222     -0.048852     -0.224497
H             0.449132      0.039708     -0.221013
H             0.351526      0.039572     -0.255911
C            -0.078754      0.268163     -0.358713
C            -0.017032      0.306072     -0.315195
N             0.031187      0.336659     -0.279884
H            -0.124930      0.249386     -0.318737
H            -0.056375      0.217382     -0.389654
H            -0.103554      0.308965     -0.401050
C             0.242997      0.208348      0.069519
C             0.288109      0.170557      0.130084
N             0.324305      0.140266      0.178681
H             0.281142      0.244190      0.033287
H             0.198120      0.245548      0.095246
H             0.215185      0.164534      0.032626
data_nwchem_pspw

_audit_creation_date   Mon Nov  6 13:40:19 2017
_audit_creation_method    generated by PSPW module of NWChem


_cell_length_a            16.9354
_cell_length_b            16.9354
_cell_length_c            16.9354
_cell_angle_alpha         90.0000
_cell_angle_beta          90.0000
_cell_angle_gamma         90.0000

_symmetry_space_group_name_H-M     P1  

loop_
_atom_site_type_symbol
_atom_site_fract_x
_atom_site_fract_y
_atom_site_fract_z
B            -0.003852      0.010449     -0.107760
B            -0.058206      0.064744     -0.044284
B             0.050466     -0.043874     -0.044284
B            -0.058206     -0.043874     -0.044284
B             0.050466      0.064744     -0.044284
B            -0.080703      0.010449      0.046307
B            -0.003852     -0.066401      0.046307
B            -0.003852      0.087300      0.046307
B             0.072939      0.010449      0.046307
B            -0.003852      0.010449      0.109831
Cl           -0.003852      0.010449      0.215585
Cl            0.172966      0.010449      0.083259
Cl           -0.003852      0.010449     -0.213514
Cl            0.121181     -0.114584     -0.081247
Cl            0.121181      0.135483     -0.081247
Cl           -0.128886      0.135483     -0.081247
Cl           -0.128886     -0.114584     -0.081247
Cl           -0.180671      0.010449      0.083259
Cl           -0.003852     -0.166369      0.083259
Cl           -0.003852      0.187268      0.083259
C             0.040540      0.129047     -0.438309
C             0.065257      0.054729     -0.470077
N             0.084926     -0.004917     -0.495585
H             0.014597      0.164357     -0.484248
H             0.090240      0.160460     -0.413627
H            -0.002913      0.120012     -0.392606
C            -0.203109      0.365356      0.067010
C            -0.231334      0.286822      0.074686
N            -0.253890      0.223936      0.080661
H            -0.209958      0.396828      0.122113
H            -0.235703      0.395943      0.021574
H            -0.141404      0.364765      0.051132
C             0.124724     -0.322904      0.269909
C             0.210579     -0.326447      0.268374
N             0.278780     -0.329164      0.267134
H             0.103054     -0.288775      0.220604
H             0.104707     -0.295565      0.323938
H             0.100042     -0.381598      0.266426
C             0.342551      0.211891     -0.238610
C             0.406736      0.181009     -0.284076
N             0.457930      0.156327     -0.320863
H             0.362864      0.260310     -0.202472
H             0.318578      0.166660     -0.200524
H             0.296317      0.233030     -0.277050
C            -0.270718      0.396415      0.480559
C            -0.208010      0.426884     -0.471258
N            -0.157701      0.450916     -0.432877
H            -0.325279      0.426706      0.493432
H            -0.278926      0.334356      0.491956
H            -0.257019      0.404268      0.418914
C            -0.313233     -0.221165      0.370054
C            -0.303136     -0.244135      0.449119
N            -0.294810     -0.262794     -0.486991
H            -0.364604     -0.184024      0.364327
H            -0.320614     -0.272596      0.333268
H            -0.261979     -0.188925      0.349978
C             0.374024     -0.491099      0.382336
C             0.429765      0.445247      0.400700
N             0.473932      0.395352      0.415462
H             0.377921     -0.475511      0.320690
H             0.387250     -0.439491      0.417292
H             0.314326      0.490419      0.394972
C            -0.436702     -0.129051     -0.205307
C            -0.490435     -0.145643     -0.143011
N             0.467110     -0.158752     -0.092703
H            -0.407414     -0.073723     -0.195446
H            -0.467938     -0.126630     -0.260812
H            -0.392298     -0.174754     -0.208554
C            -0.109046      0.431607      0.351454
C            -0.081648      0.365356      0.306224
N            -0.059977      0.312390      0.269850
H            -0.094048      0.486049      0.321871
H            -0.082415      0.431607      0.409380
H            -0.172404      0.428832      0.357949
C            -0.259145     -0.256830     -0.292993
C            -0.190532     -0.307316     -0.304684
N            -0.136385     -0.347291     -0.314604
H            -0.276978     -0.231380     -0.348852
H            -0.245387     -0.209415     -0.252604
H            -0.307860     -0.290428     -0.269255
C             0.184185      0.367836     -0.106284
C             0.261597      0.333352     -0.095301
N             0.323124      0.305895     -0.086207
H             0.141848      0.339434     -0.068021
H             0.165113      0.360809     -0.166749
H             0.185661      0.430072     -0.092467
C             0.479214     -0.440291      0.207850
C            -0.481755     -0.364828      0.201237
N            -0.450814     -0.304659      0.196277
H             0.464689     -0.452219      0.268610
H            -0.482641     -0.486762      0.186475
H             0.425540     -0.440350      0.173366
C             0.133227     -0.405630      0.019860
C             0.204557     -0.454699      0.026107
N             0.261065     -0.493139      0.031534
H             0.112206     -0.404213     -0.040422
H             0.146099     -0.345933      0.038230
H             0.086875     -0.428895      0.057125
C             0.449691      0.385609     -0.364086
C            -0.479157      0.344571     -0.386288
N            -0.422353      0.311977     -0.403707
H             0.464275      0.438516     -0.331610
H             0.413199      0.348409     -0.327299
H             0.416742      0.402083     -0.416107
C             0.175918      0.381062     -0.376368
C             0.231010      0.410232     -0.319269
N             0.275178      0.433792     -0.273802
H             0.142557      0.332584     -0.351922
H             0.206505      0.360809     -0.428330
H             0.135353      0.427356     -0.393138
C            -0.270364     -0.428068     -0.028931
C            -0.301010     -0.442358      0.048162
N            -0.325160     -0.454345      0.109949
H            -0.317780     -0.420097     -0.070796
H            -0.235054     -0.477196     -0.047000
H            -0.233991     -0.375693     -0.028665
C             0.325664     -0.039475      0.262056
C             0.267147     -0.080159      0.308763
N             0.220854     -0.112695      0.346435
H             0.309957      0.022005      0.255679
H             0.329915     -0.065811      0.204012
H             0.382704     -0.043130      0.290458
C            -0.028989     -0.300407     -0.168107
C            -0.063402     -0.330167     -0.097013
N            -0.090741     -0.354082     -0.040014
H             0.018816     -0.260550     -0.154526
H            -0.072672     -0.269053     -0.202354
H            -0.006232     -0.348472     -0.203240
C            -0.301778      0.079565     -0.310884
C            -0.279458     -0.000853     -0.292579
N            -0.262216     -0.064984     -0.278113
H            -0.289673      0.092437     -0.372294
H            -0.268829      0.120426     -0.274747
H            -0.364191      0.087713     -0.300137
C            -0.068008      0.497768     -0.242153
C             0.009350     -0.478909     -0.257033
N             0.072113     -0.459600     -0.269078
H            -0.074208      0.480585     -0.181215
H            -0.082888      0.448640     -0.279471
H            -0.107865     -0.454463     -0.254553
C            -0.472957      0.018923      0.031333
C            -0.431919     -0.038796      0.082197
N            -0.399856     -0.084411      0.122290
H            -0.499883     -0.010666     -0.018379
H            -0.432096      0.062618      0.009320
H             0.481222      0.048754      0.064217
C             0.324305      0.239289     -0.439667
C             0.304347      0.299163     -0.498124
N             0.288227      0.346342      0.455523
H             0.307241      0.258952     -0.381387
H             0.387250      0.228129     -0.439962
H             0.293660      0.184906     -0.452717
C            -0.260444     -0.172392      0.213637
C            -0.216099     -0.225889      0.164863
N            -0.180375     -0.268167      0.125774
H            -0.241136     -0.112399      0.204366
H            -0.252237     -0.187331      0.275106
H            -0.322385     -0.176643      0.199406
C            -0.320200     -0.019340      0.356828
C            -0.260503      0.035580      0.333917
N            -0.212616      0.079683      0.315435
H            -0.375528      0.011176      0.365862
H            -0.303549     -0.048392      0.411211
H            -0.328054     -0.063331      0.311302
C             0.415475     -0.470196     -0.193792
C             0.494363      0.495084     -0.204657
N            -0.443342      0.467331     -0.213101
H             0.415475     -0.408550     -0.210916
H             0.397584     -0.474271     -0.132737
H             0.372843      0.498981     -0.229516
C             0.410810     -0.335245      0.032183
C             0.364930     -0.309028     -0.031145
N             0.327258     -0.287594     -0.082192
H             0.401422     -0.298341      0.082846
H             0.472220     -0.333297      0.016350
H             0.395458     -0.395179      0.047193
C             0.108132      0.461099      0.160848
C             0.036253     -0.495737      0.164332
N            -0.021431     -0.461135      0.167166
H             0.106656      0.413152      0.202477
H             0.157200      0.499067      0.174961
H             0.116398      0.437303      0.102332
C            -0.031292     -0.390396      0.365449
C            -0.065823     -0.314461      0.343306
N            -0.093162     -0.254350      0.325591
H            -0.060391     -0.413484      0.417411
H             0.030821     -0.383724      0.378203
H            -0.038106     -0.432379      0.317915
C            -0.388578     -0.264506      0.035295
C            -0.348484     -0.243013     -0.035072
N            -0.316303     -0.225889     -0.091817
H            -0.381138     -0.219453      0.079658
H            -0.365549     -0.319480      0.057792
H            -0.450755     -0.271651      0.023781
C             0.449723      0.440228      0.037604
C             0.499854     -0.494937      0.010183
N            -0.460938     -0.443566     -0.012044
H             0.465607      0.386022      0.008003
H             0.388490      0.452865      0.025233
H             0.456572      0.431784      0.100442
C             0.468468      0.003124      0.264477
C            -0.470005      0.061732      0.256269
N            -0.420995      0.108321      0.249656
H             0.493209     -0.052820      0.282605
H             0.438353     -0.004928      0.208736
H             0.425835      0.021857      0.308113
C             0.418546      0.251098      0.342479
C             0.377330      0.183725      0.378144
N             0.344264      0.130523      0.406782
H             0.427875      0.241887      0.280066
H             0.475231      0.259719      0.370527
H             0.384062      0.304300      0.350214
C            -0.343997     -0.433206     -0.409139
C            -0.382850     -0.455112     -0.482004
N            -0.413968     -0.472413      0.459893
H            -0.283945     -0.415255     -0.421067
H            -0.342993     -0.482510     -0.368751
H            -0.374702     -0.384668     -0.381505
C             0.461650      0.053023     -0.483271
C            -0.479066      0.110860      0.499900
N            -0.431591      0.156740      0.486083
H             0.411637      0.080391     -0.454869
H             0.484915      0.007969     -0.444890
H             0.442047      0.025672      0.462582
C            -0.304317      0.082281     -0.108941
C            -0.387102      0.097929     -0.131084
N            -0.452349      0.110092     -0.148503
H            -0.287075      0.119068     -0.059695
H            -0.265522      0.094622     -0.157950
H            -0.296936      0.021178     -0.092171
C             0.485919     -0.324499      0.380624
C             0.476885     -0.241123      0.373715
N             0.469681     -0.174163      0.368401
H            -0.465662     -0.338198      0.419595
H             0.497551     -0.350066      0.323525
H             0.432717     -0.350421      0.404184
C            -0.210195     -0.073605     -0.491511
C            -0.178427     -0.002651     -0.456909
N            -0.152623      0.053808     -0.429275
H            -0.258968     -0.059552      0.469931
H            -0.230920     -0.112990     -0.445985
H            -0.165259     -0.103306      0.474359
C            -0.339037      0.272592      0.382218
C            -0.355629      0.328923      0.322875
N            -0.369033      0.374508      0.275401
H            -0.344233      0.299459      0.439731
H            -0.279753      0.250567      0.375073
H            -0.380075      0.224055      0.378203
C             0.313795     -0.283815      0.462523
C             0.275650     -0.316468     -0.470458
N             0.244945     -0.342804     -0.416547
H             0.281791     -0.232739      0.441856
H             0.316275     -0.326861      0.415580
H             0.373138     -0.266160      0.477462
C            -0.464068     -0.257893     -0.387941
C            -0.498551     -0.336485     -0.393492
N             0.473991     -0.398663     -0.397743
H            -0.417007     -0.251339     -0.430515
H            -0.440448     -0.248209     -0.329484
H             0.491470     -0.213666     -0.399574
C            -0.443610      0.297864     -0.060286
C            -0.444732      0.303533      0.024283
N            -0.445205      0.308257      0.091821
H            -0.390290      0.268695     -0.079417
H            -0.445972      0.355908     -0.086148
H            -0.493742      0.264266     -0.080893
C            -0.196850      0.465737     -0.107406
C            -0.120442      0.434264     -0.096895
N            -0.058796      0.408874     -0.088924
H            -0.236530      0.420979     -0.128131
H            -0.195374     -0.487143     -0.150274
H            -0.218225      0.488825     -0.052255
C             0.147517      0.177938      0.311066
C             0.150823      0.261078      0.290458
N             0.153657      0.327093      0.273806
H             0.164050      0.169849      0.372003
H             0.187610      0.144458      0.274515
H             0.088410      0.155441      0.302799
C             0.200423     -0.217268     -0.251954
C             0.274233     -0.188925     -0.281951
N             0.333635     -0.166428     -0.305629
H             0.206623     -0.234156     -0.190840
H             0.181646     -0.268403     -0.285257
H             0.155842     -0.171978     -0.256619
C             0.096204     -0.212485     -0.477222
C             0.054392     -0.212072     -0.405301
N             0.020812     -0.211540     -0.347317
H             0.058012     -0.231144      0.475363
H             0.145686     -0.252401     -0.473442
H             0.117816     -0.153910     -0.489976
C            -0.325279     -0.450329      0.286502
C            -0.265168     -0.438048      0.344250
N            -0.216926     -0.428600      0.390662
H            -0.311343      0.498535      0.250896
H            -0.329825     -0.399548      0.248239
H            -0.381492     -0.459836      0.315081
C             0.214772     -0.179359      0.107410
C             0.297262     -0.162649      0.093416
N             0.363041     -0.149245      0.082610
H             0.178398     -0.136786      0.077000
H             0.202018     -0.176348      0.169823
H             0.200069     -0.237640      0.086153
C             0.334757      0.031063     -0.390244
C             0.260239      0.033950     -0.351627
N             0.200364      0.036336     -0.320922
H             0.353003      0.089544     -0.408372
H             0.331864     -0.006852     -0.441202
H             0.378511      0.007934     -0.350387
C            -0.152151      0.262967      0.470258
C            -0.067063      0.271647      0.481005
N             0.000411      0.279146      0.489154
H            -0.171814      0.206517      0.492460
H            -0.166913      0.266805      0.408317
H            -0.183092      0.309024     -0.498565
C             0.168656      0.476806      0.499959
C             0.095377     -0.490423     -0.483330
N             0.035969     -0.463379     -0.469926
H             0.191566     -0.498512      0.445931
H             0.163459      0.413743      0.493287
H             0.209399      0.489501     -0.452803
C            -0.242317      0.406276     -0.260516
C            -0.264223      0.334592     -0.221072
N            -0.282233      0.277611     -0.189305
H            -0.285894      0.451506     -0.249829
H            -0.238242      0.396120     -0.323284
H            -0.185926      0.426943     -0.239259
C             0.270985     -0.489682      0.232296
C             0.331037      0.448790      0.228399
N             0.378393      0.400076      0.225683
H             0.232900     -0.499484      0.282368
H             0.235261     -0.489918      0.179507
H             0.298383     -0.432760      0.238319
C            -0.489018     -0.050021     -0.362728
C            -0.435875     -0.047034     -0.431519
N            -0.393951     -0.044613     -0.485665
H             0.460910     -0.087481     -0.374774
H             0.489843      0.008418     -0.348320
H            -0.457959     -0.073310     -0.312124
C             0.391325      0.013774     -0.213396
C             0.362096      0.027975     -0.133918
N             0.338477      0.039029     -0.070678
H             0.395222     -0.048852     -0.224497
H             0.449132      0.039708     -0.221013
H             0.351526      0.039572     -0.255911
C            -0.078754      0.268163     -0.358713
C            -0.017032      0.306072     -0.315195
N             0.031187      0.336659     -0.279884
H            -0.124930      0.249386     -0.318737
H            -0.056375      0.217382     -0.389654
H            -0.103554      0.308965     -0.401050
C             0.242997      0.208348      0.069519
C             0.288109      0.170557      0.130084
N             0.324305      0.140266      0.178681
H             0.281142      0.244190      0.033287
H             0.198120      0.245548      0.095246
H             0.215185      0.164534      0.032626
data_nwchem_pspw

_audit_creation_date   Mon Nov  6 14:41:45 2017
_audit_creation_method    generated by PSPW module of NWChem


_cell_length_a            16.9354
_cell_length_b            16.9354
_cell_length_c            16.9354
_cell_angle_alpha         90.0000
_cell_angle_beta          90.0000
_cell_angle_gamma         90.0000

_symmetry_space_group_name_H-M     P1  

loop_
_atom_site_type_symbol
_atom_site_fract_x
_atom_site_fract_y
_atom_site_fract_z
B            -0.003876      0.010469     -0.107578
B            -0.057735      0.064219     -0.043936
B             0.049856     -0.043445     -0.043961
B            -0.058079     -0.043822     -0.044154
B             0.049939      0.064258     -0.043916
B            -0.080662      0.010311      0.046302
B            -0.003786     -0.066020      0.046160
B            -0.003942      0.087000      0.046132
B             0.072000      0.010434      0.045947
B            -0.003956      0.010470      0.109614
Cl           -0.003859      0.010377      0.215329
Cl            0.172707      0.010601      0.083248
Cl           -0.003932      0.010396     -0.213210
Cl            0.121044     -0.114593     -0.081189
Cl            0.121003      0.135346     -0.081296
Cl           -0.128478      0.135388     -0.081181
Cl           -0.128807     -0.114457     -0.081140
Cl           -0.180493      0.010365      0.083179
Cl           -0.003846     -0.166278      0.083225
Cl           -0.003843      0.187040      0.083245
C             0.047141      0.125756     -0.434107
C             0.069616      0.052441     -0.468760
N             0.087993     -0.006164     -0.497691
H             0.024483      0.163697     -0.479992
H             0.097365      0.154890     -0.407556
H             0.003257      0.114943     -0.388960
C            -0.201404      0.365542      0.060092
C            -0.231179      0.285037      0.072624
N            -0.252577      0.220422      0.082626
H            -0.206833      0.400981      0.113113
H            -0.237734      0.393498      0.015628
H            -0.140242      0.364113      0.041972
C             0.122392     -0.320016      0.275335
C             0.207242     -0.326035      0.270763
N             0.274923     -0.331111      0.267157
H             0.098911     -0.280058      0.230950
H             0.105959     -0.295226      0.331926
H             0.093737     -0.376587      0.267436
C             0.347255      0.209378     -0.237057
C             0.408608      0.179508     -0.285057
N             0.458006      0.154477     -0.324294
H             0.367914      0.259825     -0.203894
H             0.327587      0.166178     -0.194280
H             0.296529      0.226503     -0.271867
C            -0.272479      0.399659      0.484324
C            -0.205938      0.429294     -0.471825
N            -0.152687      0.450987     -0.434929
H            -0.328035      0.420791     -0.493863
H            -0.276198      0.336818      0.490745
H            -0.270320      0.415551      0.422473
C            -0.312194     -0.223311      0.366456
C            -0.299920     -0.248287      0.446921
N            -0.290509     -0.268105     -0.488742
H            -0.369953     -0.196723      0.358453
H            -0.304907     -0.272053      0.325710
H            -0.267355     -0.178860      0.357504
C             0.377575     -0.489392      0.380007
C             0.429690      0.446983      0.399288
N             0.472035      0.396839      0.416103
H             0.381788     -0.474205      0.318914
H             0.392003     -0.438137      0.414383
H             0.317031      0.494979      0.392584
C            -0.431913     -0.130817     -0.201506
C            -0.490109     -0.146395     -0.139540
N             0.465652     -0.156024     -0.088406
H            -0.394270     -0.080316     -0.190767
H            -0.466851     -0.125196     -0.253634
H            -0.394006     -0.181462     -0.209016
C            -0.114777      0.433339      0.351428
C            -0.084895      0.367606      0.306247
N            -0.061958      0.315019      0.269876
H            -0.109932      0.487676      0.318492
H            -0.084576      0.439642      0.407454
H            -0.176900      0.426912      0.361649
C            -0.257276     -0.260281     -0.293483
C            -0.192786     -0.312607     -0.305278
N            -0.139732     -0.353867     -0.314931
H            -0.265688     -0.225573     -0.346590
H            -0.245566     -0.221558     -0.244016
H            -0.310190     -0.293536     -0.280519
C             0.182723      0.367703     -0.102903
C             0.260679      0.332396     -0.096681
N             0.322466      0.304222     -0.090378
H             0.140751      0.335950     -0.066451
H             0.160365      0.365975     -0.162804
H             0.185504      0.428806     -0.084938
C             0.486117     -0.443963      0.208595
C            -0.485581     -0.365550      0.199635
N            -0.461484     -0.302295      0.194160
H             0.476901     -0.457978      0.270069
H            -0.470698     -0.485943      0.186994
H             0.430776     -0.450995      0.177395
C             0.132599     -0.413365      0.007984
C             0.204164     -0.459032      0.015125
N             0.260538     -0.496500      0.023329
H             0.102175     -0.425527     -0.046956
H             0.145848     -0.350450      0.009353
H             0.091400     -0.426348      0.055209
C             0.448726      0.384400     -0.365300
C            -0.478202      0.343646     -0.383455
N            -0.420283      0.311193     -0.398806
H             0.459982      0.431978     -0.324489
H             0.406525      0.345040     -0.338083
H             0.423815      0.409242     -0.418668
C             0.174410      0.378798     -0.369536
C             0.231722      0.410274     -0.316606
N             0.277957      0.433777     -0.272729
H             0.143216      0.330446     -0.342574
H             0.202393      0.360313     -0.423346
H             0.128384      0.422498     -0.378341
C            -0.274306     -0.422587     -0.023709
C            -0.298491     -0.441922      0.050261
N            -0.323706     -0.450858      0.111915
H            -0.313650     -0.436969     -0.072197
H            -0.217596     -0.471181     -0.030894
H            -0.232770     -0.374015     -0.029916
C             0.321100     -0.039796      0.263677
C             0.265998     -0.076987      0.310495
N             0.220893     -0.107970      0.349606
H             0.304859      0.018569      0.243892
H             0.340434     -0.075043      0.213961
H             0.367769     -0.041293      0.307993
C            -0.028665     -0.297961     -0.165836
C            -0.062587     -0.330736     -0.095699
N            -0.089579     -0.357626     -0.039236
H             0.016323     -0.255233     -0.150247
H            -0.072490     -0.267021     -0.200148
H            -0.003025     -0.343562     -0.202442
C            -0.295706      0.076830     -0.309244
C            -0.276968     -0.005929     -0.295791
N            -0.262781     -0.071875     -0.285415
H            -0.274856      0.096069     -0.366389
H            -0.270358      0.114362     -0.264853
H            -0.359232      0.084971     -0.306415
C            -0.069638     -0.496837     -0.246320
C             0.012148     -0.477746     -0.261665
N             0.076955     -0.459532     -0.271770
H            -0.074923     -0.499736     -0.182757
H            -0.080711      0.445544     -0.271554
H            -0.105761     -0.451262     -0.273423
C            -0.465315      0.022317      0.032145
C            -0.432011     -0.037440      0.082829
N            -0.405301     -0.085167      0.123177
H            -0.496480     -0.004619     -0.016806
H            -0.419548      0.060925      0.010378
H             0.492136      0.058999      0.062889
C             0.321529      0.239746     -0.441943
C             0.299540      0.299097      0.500007
N             0.283658      0.348246      0.455221
H             0.288768      0.250721     -0.388090
H             0.384303      0.242757     -0.429218
H             0.306743      0.181667     -0.464765
C            -0.259032     -0.171478      0.208300
C            -0.214743     -0.227192      0.162466
N            -0.177903     -0.269744      0.124654
H            -0.250032     -0.111170      0.187382
H            -0.231591     -0.175011      0.266313
H            -0.321369     -0.184987      0.209295
C            -0.319980     -0.019619      0.350251
C            -0.258064      0.035861      0.332379
N            -0.208845      0.080317      0.316880
H            -0.377295      0.005886      0.338670
H            -0.322294     -0.033526      0.412958
H            -0.311772     -0.072035      0.314914
C             0.412343     -0.469053     -0.191412
C             0.490514      0.495737     -0.206548
N            -0.447778      0.469279     -0.218500
H             0.410481     -0.407920     -0.210316
H             0.398847     -0.469764     -0.129033
H             0.365053      0.499692     -0.221328
C             0.421223     -0.325854      0.030927
C             0.367722     -0.304523     -0.036279
N             0.324620     -0.287756     -0.087066
H             0.417720     -0.282574      0.077588
H             0.481677     -0.328444      0.010596
H             0.407800     -0.384730      0.051659
C             0.111284      0.465095      0.157516
C             0.035545     -0.497099      0.163098
N            -0.025934     -0.468001      0.166878
H             0.117701      0.415412      0.198223
H             0.153141     -0.490618      0.174468
H             0.126443      0.446014      0.098599
C            -0.032507     -0.391163      0.365508
C            -0.067779     -0.314750      0.341776
N            -0.094618     -0.254745      0.323562
H            -0.069762     -0.420617      0.408325
H             0.024342     -0.383275      0.394200
H            -0.024045     -0.427356      0.313113
C            -0.384979     -0.265461      0.036016
C            -0.345334     -0.244311     -0.037230
N            -0.314101     -0.228009     -0.095649
H            -0.374962     -0.221049      0.080894
H            -0.366479     -0.322296      0.057346
H            -0.447670     -0.265276      0.026068
C             0.443851      0.446444      0.029786
C             0.495492     -0.492899      0.004666
N            -0.464428     -0.442310     -0.016406
H             0.462098      0.390353      0.005844
H             0.384094      0.457289      0.010619
H             0.444418      0.438143      0.093145
C             0.464195      0.011587      0.262752
C            -0.474047      0.064895      0.257031
N            -0.423815      0.109540      0.253159
H             0.479813     -0.042959      0.292962
H             0.443026     -0.002762      0.204413
H             0.421749      0.046287      0.295433
C             0.419717      0.245024      0.345390
C             0.374003      0.181207      0.379669
N             0.337846      0.130923      0.408417
H             0.439453      0.230304      0.286326
H             0.470092      0.258944      0.381991
H             0.383723      0.297606      0.340984
C            -0.339897     -0.439100     -0.406621
C            -0.381307     -0.459111     -0.480290
N            -0.413065     -0.475872      0.461749
H            -0.277716     -0.428466     -0.416836
H            -0.348333     -0.485372     -0.363198
H            -0.364558     -0.386003     -0.381402
C             0.461566      0.055763     -0.490729
C            -0.474184      0.109090      0.497911
N            -0.424182      0.153505      0.485841
H             0.410534      0.091835     -0.477436
H             0.469659      0.017308     -0.440338
H             0.447769      0.018780      0.459489
C            -0.300361      0.087220     -0.111042
C            -0.381059      0.100720     -0.129405
N            -0.446635      0.111262     -0.143467
H            -0.279240      0.126167     -0.064953
H            -0.262414      0.097587     -0.160825
H            -0.289478      0.027289     -0.091043
C             0.488227     -0.326796      0.378347
C             0.476594     -0.243368      0.373400
N             0.468023     -0.176083      0.370630
H            -0.458413     -0.342864      0.409565
H             0.491069     -0.350138      0.319504
H             0.439574     -0.352992      0.410004
C            -0.209282     -0.078505     -0.487680
C            -0.181041     -0.002687     -0.457943
N            -0.157977      0.056532     -0.433559
H            -0.251473     -0.068207      0.465584
H            -0.240223     -0.110196     -0.441802
H            -0.162005     -0.114335      0.488943
C            -0.345044      0.265453      0.382166
C            -0.357814      0.327120      0.322856
N            -0.367843      0.375835      0.276046
H            -0.363372      0.282540      0.441713
H            -0.283944      0.246515      0.379884
H            -0.378628      0.213079      0.368999
C             0.308861     -0.277840      0.466558
C             0.272410     -0.315885     -0.467306
N             0.241996     -0.345857     -0.414360
H             0.272553     -0.229796      0.444534
H             0.316213     -0.319280      0.418366
H             0.365352     -0.253480      0.484103
C            -0.461076     -0.253404     -0.392723
C            -0.495435     -0.332294     -0.393377
N             0.475894     -0.394086     -0.393015
H            -0.409041     -0.249457     -0.429763
H            -0.444194     -0.236958     -0.333206
H             0.494620     -0.211879     -0.412665
C            -0.440524      0.290226     -0.056876
C            -0.447839      0.296165      0.029461
N            -0.453539      0.302455      0.097329
H            -0.388688      0.257189     -0.073687
H            -0.435978      0.347537     -0.085093
H            -0.492081      0.260503     -0.081341
C            -0.192313      0.459272     -0.115784
C            -0.120688      0.426928     -0.099457
N            -0.060556      0.399408     -0.089938
H            -0.241786      0.419514     -0.122714
H            -0.193829     -0.486332     -0.150563
H            -0.193613      0.455552     -0.041840
C             0.149659      0.176732      0.311859
C             0.150027      0.261902      0.293267
N             0.150787      0.328777      0.279484
H             0.170018      0.166307      0.371559
H             0.188753      0.144827      0.272429
H             0.090948      0.151855      0.305179
C             0.199458     -0.223398     -0.251905
C             0.273717     -0.191064     -0.278217
N             0.334225     -0.167956     -0.299324
H             0.206506     -0.243384     -0.191644
H             0.184301     -0.272759     -0.289649
H             0.152582     -0.179831     -0.253843
C             0.096908     -0.206108     -0.478844
C             0.053061     -0.210128     -0.401220
N             0.019618     -0.213601     -0.341024
H             0.058428     -0.224021      0.473155
H             0.146257     -0.246658     -0.476545
H             0.116707     -0.146684     -0.492220
C            -0.327527     -0.439844      0.289144
C            -0.265500     -0.434252      0.349263
N            -0.215881     -0.429707      0.396109
H            -0.309873     -0.477147      0.239909
H            -0.340509     -0.382645      0.264022
H            -0.378989     -0.466825      0.316618
C             0.215207     -0.175897      0.102859
C             0.298750     -0.161605      0.094716
N             0.365898     -0.150885      0.089214
H             0.182125     -0.128839      0.075314
H             0.198962     -0.176968      0.164749
H             0.198482     -0.230744      0.074626
C             0.328549      0.029449     -0.392598
C             0.258463      0.033884     -0.350713
N             0.200275      0.035868     -0.317038
H             0.337124      0.088349     -0.414366
H             0.326501     -0.014733     -0.438077
H             0.375151      0.017246     -0.351022
C            -0.152024      0.271784      0.468893
C            -0.066634      0.275654      0.478994
N             0.000580      0.278991      0.489185
H            -0.178255      0.218324      0.492781
H            -0.166853      0.275320      0.406970
H            -0.175675      0.320371     -0.499300
C             0.172471      0.477458      0.494741
C             0.093768     -0.489913     -0.481231
N             0.032579     -0.464350     -0.463734
H             0.195477     -0.490544      0.444370
H             0.167019      0.416533      0.475950
H             0.214646      0.484313     -0.457880
C            -0.238043      0.407584     -0.268586
C            -0.265336      0.337319     -0.225893
N            -0.287631      0.283523     -0.190372
H            -0.282165      0.453147     -0.260768
H            -0.229951      0.397507     -0.330708
H            -0.182863      0.427829     -0.245753
C             0.272720     -0.486548      0.236411
C             0.328769      0.449999      0.226954
N             0.376710      0.401828      0.223287
H             0.237185     -0.492820      0.288883
H             0.237889     -0.480433      0.185103
H             0.301679     -0.430048      0.238986
C            -0.482524     -0.053729     -0.362163
C            -0.434417     -0.049487     -0.428770
N            -0.396800     -0.041958     -0.484196
H             0.468074     -0.093818     -0.368019
H             0.496830      0.003795     -0.343043
H            -0.442649     -0.070006     -0.315450
C             0.389102      0.019378     -0.211777
C             0.358808      0.032690     -0.129839
N             0.335668      0.040945     -0.066282
H             0.385379     -0.042851     -0.227298
H             0.448689      0.041569     -0.217396
H             0.351130      0.050748     -0.251656
C            -0.081800      0.269820     -0.353597
C            -0.015859      0.305041     -0.314992
N             0.035100      0.334365     -0.280979
H            -0.131173      0.264874     -0.312718
H            -0.068278      0.211306     -0.374698
H            -0.096435      0.309375     -0.401342
C             0.241974      0.211363      0.070966
C             0.285369      0.172162      0.132727
N             0.320582      0.140663      0.181780
H             0.282478      0.241650      0.031838
H             0.199969      0.252869      0.096165
H             0.208751      0.168453      0.036983
